9

C      -0.46776020     -0.03328394      0.73385775
C      -0.46783349     -0.03328581     -0.73395101
N       0.82155482     -0.00039670      0.00001779
H      -0.64485618     -0.95783668      1.26799860
H      -0.69131758      0.88094232      1.26860612
H      -0.69128825      0.88074321     -1.26855534
H      -0.64467250     -0.95773251     -1.26811781
H       1.35390068      0.86361787      0.00016778
H       1.39755070     -0.83581176     -0.00002388
