11

C       0.50796011      0.00346280     -1.18361758
C      -0.60340366      0.05691199     -0.16818221
N      -0.04504840      0.00232828      1.23419418
H       0.07259541      0.04465530     -2.18274664
H       1.08015536     -0.92476062     -1.11524495
H       1.18917117      0.85244449     -1.08947663
H      -1.18010202      0.98033005     -0.22871014
H      -1.28851078     -0.78697870     -0.25433497
H       0.58906936      0.78611275      1.40539697
H       0.48823690     -0.85768511      1.38156297
H      -0.78375278      0.03740944      1.93986867
