11

 C      0.55718809      0.00021911     -1.16816938
 C     -0.55417568      0.05366830     -0.15273401
 N      0.00417958     -0.00091541      1.24964238
 H      0.12182339      0.04141161     -2.16729844
 H      1.12938334     -0.92800432     -1.09979675
 H      1.23839916      0.84920079     -1.07402842
 H     -1.13087403      0.97708637     -0.21326194
 H     -1.23928280     -0.79022238     -0.23888677
 H      0.63829735      0.78286905      1.42084517
 H      0.53746488     -0.86092881      1.39701117
 H     -0.73452480      0.03416575      1.95531687
