11

 C      0.88164960      0.05096054     -0.04824811
 N      2.37053118     -0.01924456     -0.07506782
 C      2.92358423     -1.33638699      0.35117693
 H      0.56619760      1.04112002     -0.37208165
 H      0.54463718     -0.13813493      0.96903364
 H      0.48729987     -0.70883779     -0.72010478
 H      2.75194697      0.71486172      0.52488060
 H      2.69954187      0.19325131     -1.01895639
 H      2.59929822     -1.53412913      1.37094810
 H      4.01029137     -1.29889366      0.30162124
 H      2.54196090     -2.10483199     -0.31819032
