12

C      -1.08758045      0.26676304     -0.00000000
C      -0.03934702     -0.07565077      1.06528800
N       1.04518963     -0.02868404     -0.00000000
C      -0.03934702     -0.07565077     -1.06528800
H      -1.98937074     -0.33929308     -0.00000000
H      -1.36257145      1.32069535     -0.00000000
H      -0.10553524     -1.09198534      1.44906500
H       0.14199968      0.62328072      1.87822900
H       1.55431939      0.85440399     -0.00000000
H       1.72653478     -0.78663149     -0.00000000
H       0.14199968      0.62328072     -1.87822900
H      -0.10553524     -1.09198534     -1.44906500
