12

 C     -1.06724623      0.26161393     -0.00000000
 C     -0.01901281     -0.08079988      1.06528800
 N      1.06552384     -0.03383316     -0.00000000
 C     -0.01901281     -0.08079988     -1.06528800
 H     -1.96903653     -0.34444219      0.00000000
 H     -1.34223723      1.31554624     -0.00000000
 H     -0.08520103     -1.09713445      1.44906500
 H      0.16233390      0.61813160      1.87822900
 H      1.57465361      0.84925487     -0.00000000
 H      1.74686899     -0.79178061      0.00000000
 H      0.16233390      0.61813160     -1.87822900
 H     -0.08520103     -1.09713445     -1.44906500
