14

 C      0.99874875      0.00553292      0.07483905
 C      2.50865280      0.00664468      0.13781249
 C      3.07811548     -0.53194113      1.42987083
 N      3.03496797     -0.84608046     -1.00807937
 H      0.62258344      0.38425394     -0.87857079
 H      0.61070771      0.65649518      0.85873692
 H      0.59153976     -0.99457646      0.24806171
 H      2.90050486      1.00610571     -0.06706815
 H      2.71893900     -1.54446593      1.63439415
 H      2.75104772      0.10326078      2.25350229
 H      4.17077520     -0.53288153      1.43362959
 H      2.71845918     -1.81345631     -0.90609030
 H      4.05666003     -0.85465948     -1.02818395
 H      2.70120513     -0.50430193     -1.91147423
