14

C       1.01366235      0.05407692      0.07120836
C       2.52356640      0.05518868      0.13418180
C       3.09302909     -0.48339713      1.42624013
N       3.04988157     -0.79753646     -1.01171007
H       0.63749704      0.43279794     -0.88220148
H       0.62562131      0.70503918      0.85510623
H       0.60645336     -0.94603246      0.24443102
H       2.91541846      1.05464971     -0.07069884
H       2.73385261     -1.49592193      1.63076345
H       2.76596133      0.15180478      2.24987159
H       4.18568881     -0.48433753      1.42999889
H       2.73337278     -1.76491231     -0.90972100
H       4.07157363     -0.80611547     -1.03181465
H       2.71611873     -0.45575792     -1.91510493
