14

C       0.96828418     -0.03515582     -0.00264866
C       2.47594343     -0.05803280     -0.00819921
N       3.00174655     -1.24029293      0.75599197
C       4.48575158     -1.33922537      0.80038292
H       0.62542697      0.83403163     -0.56506905
H       0.56399944      0.05144763      1.00869946
H       0.54376120     -0.92076114     -0.48145427
H       2.90519076      0.82632683      0.46485196
H       2.88507641     -0.13993078     -1.01618014
H       2.61471943     -2.09238418      0.34475865
H       2.63324416     -1.20248946      1.70874546
H       4.85997546     -1.41694016     -0.21836932
H       4.76877091     -2.22129546      1.37202090
H       4.88025204     -0.44288900      1.27460832
