14

C       1.04900745     -0.00659884     -0.06787158
N       2.53633412      0.04975056     -0.05745526
C       3.05935504      0.91804425     -1.14739831
C       3.05922770      0.46554889      1.27318677
H       0.71221421     -0.34999394     -1.04414427
H       0.66599537      0.99380811      0.12768340
H       0.71286270     -0.69219403      0.70779984
H       2.87723750     -0.89670814     -0.23468104
H       2.70611566      1.93403159     -0.97819962
H       2.69044353      0.55075779     -2.10326173
H       4.14767411      0.89425019     -1.13068272
H       2.70768110      1.47494933      1.48041925
H       4.14757714      0.44721572      1.24936173
H       2.68869338     -0.22125298      2.03177304
