14

 C      1.03448487      0.03397269     -0.06037773
 N      2.52181154      0.09032210     -0.04996141
 C      3.04483246      0.95861578     -1.13990447
 C      3.04470512      0.50612043      1.28068061
 H      0.69769163     -0.30942241     -1.03665042
 H      0.65147279      1.03437964      0.13517725
 H      0.69834012     -0.65162250      0.71529369
 H      2.86271492     -0.85613660     -0.22718719
 H      2.69159308      1.97460312     -0.97070578
 H      2.67592095      0.59132932     -2.09576789
 H      4.13315153      0.93482173     -1.12318888
 H      2.69315852      1.51552087      1.48791309
 H      4.13305456      0.48778726      1.25685557
 H      2.67417081     -0.18068144      2.03926688
