12

 N      0.93834461     -0.11544454     -0.14252154
 C      2.43439741      0.11434164     -0.01373564
 C      2.86805230      1.19093880     -0.94342633
 C      3.30266369      2.36903410     -0.51832149
 H      0.60796876     -0.85224275      0.48488599
 H      0.69159040     -0.38227042     -1.09816911
 H      0.42950612      0.74509766      0.07304664
 H      2.61671980      0.37239139      1.02932262
 H      2.90197981     -0.84808132     -0.23065354
 H      2.85135111      0.96102490     -2.00629561
 H      3.36330914      2.61347495      0.53791192
 H      3.63622750      3.12843283     -1.21503321
