12

N       1.10403322     -0.00045181     -0.21010702
C       2.60008602      0.22933437     -0.08132112
C       3.03374091      1.30593153     -1.01101180
C       3.46835231      2.48402683     -0.58590696
H       0.77365737     -0.73725002      0.41730051
H       0.85727901     -0.26727769     -1.16575459
H       0.59519474      0.86009039      0.00546117
H       2.78240842      0.48738412      0.96173714
H       3.06766842     -0.73308859     -0.29823902
H       3.01703972      1.07601763     -2.07388109
H       3.52899776      2.72846768      0.47032645
H       3.80191612      3.24342556     -1.28261868
