10

 N      0.99276823     -0.08017171     -0.08096184
 C      2.50699647     -0.06912901     -0.05778318
 C      2.97821787     -0.86957501      1.04436290
 C      3.36083943     -1.53663327      1.96259111
 H      0.62037171      0.47922398     -0.85228950
 H      0.62136659      0.29029892      0.79758600
 H      0.64598116     -1.03799655     -0.17762748
 H      2.81521792      0.97527473      0.02736812
 H      2.84173066     -0.45545213     -1.02304888
 H      3.71387866     -2.12920429      2.77861686
