13

C      -0.17656060      1.21979993      0.11549270
N      -1.04747970      0.00044135     -0.09575284
C      -0.18052528     -1.22411729      0.10124015
C       1.19200503     -0.66503124     -0.07767240
C       1.19415197      0.65838851     -0.06995442
H      -0.46254705      1.99189746     -0.59963716
H      -0.34720835      1.60178176      1.12582539
H      -1.86052659     -0.00182735      0.51943559
H      -1.39901201      0.00659456     -1.05307027
H      -0.35243055     -1.61730126      1.10705219
H      -0.46900169     -1.98688964     -0.62284083
H       2.05866739     -1.30570925     -0.16472400
H       2.06289003      1.29722306     -0.14954410
