15

C       0.91231021      0.01206932     -0.28372722
C       2.35959281     -0.19671515      0.04766587
C       2.73892886     -0.18457888      1.49818168
C       3.22216658     -0.90600703     -0.91482684
N       3.31182218      0.57351342     -0.84345481
H       0.73201294      0.04014098     -1.36047029
H       0.53716035      0.93193178      0.16774191
H       0.33744634     -0.82096291      0.12530552
H       3.81544179     -0.29181158      1.64748614
H       2.25183971     -1.02706067      1.99284069
H       2.39817205      0.73158093      1.98320203
H       4.11249048     -1.41370226     -0.56536920
H       2.80252556     -1.27267542     -1.84327039
H       2.92594647      1.11126041     -1.61159302
H       4.14139366      0.98040907     -0.42589608
