14
0095.log
C      1.458776    0.000121   -1.330834
C      0.096619    0.096237   -0.713796
C     -0.573150   -1.061374   -0.076855
N     -0.000362   -0.000144    0.727684
C     -0.945489    0.883603    1.369625
H      1.391423   -0.299061   -2.380287
H      2.063833   -0.736325   -0.799120
H      1.978693    0.960826   -1.285561
H     -0.577709    0.814088   -1.182364
H     -0.067429   -2.020704   -0.025821
H     -1.657730   -1.116188   -0.143842
H     -1.256368    0.453252    2.324768
H     -1.848222    1.065153    0.763699
H     -0.467388    1.845534    1.569927
