15

C       1.44280227     -0.06841494     -1.35529612
C       0.06518831      0.00413146     -0.78440885
C      -0.58206314     -1.14817225     -0.13142313
N      -0.07525454     -0.03410930      0.70054137
C      -0.98606764      0.85751538      1.42902331
H       1.37272453     -0.36095064     -2.40480940
H       2.05726062     -0.81365186     -0.84476298
H       1.94098342      0.90117679     -1.31096802
H      -0.60076697      0.74620330     -1.21265494
H      -1.66112101     -1.23498001     -0.13235395
H      -0.02986866     -2.07411287     -0.02656410
H       0.78936967     -0.23674348      1.19304140
H      -1.87713079      1.02032297      0.82510576
H      -0.48440362      1.80730293      1.60964533
H      -1.26247043      0.38981152      2.37335633
