15

C       1.09913446      0.06239738      0.05629614
C       2.60608532      0.05450489      0.04453087
C       3.34800132      1.13232115      0.85465548
N       4.31640199      0.07601365      1.35695096
C       3.33725449     -0.99240673      0.90348186
H       0.71277764      0.93191761     -0.47849063
H       0.70790795      0.08782023      1.07648634
H       0.70388199     -0.82681958     -0.43807474
H       2.98454377      0.02903506     -0.98051409
H       2.77638010      1.50728772      1.70320675
H       3.84453704      1.95131964      0.33909333
H       4.55340052      0.09758392      2.34776684
H       5.18446412      0.05936031      0.82332755
H       3.82536468     -1.83920116      0.42619974
H       2.76206861     -1.32220109      1.76822858
