15

C       0.96723368      0.10323340     -0.19885030
C       2.46336891      0.10028130     -0.14697616
N       2.96188162      0.18599746      1.25952589
C       3.30795156     -0.71360313     -1.06690428
C       3.31415743      0.78648556     -1.16052344
H       0.64430800      0.03973956     -1.23763788
H       0.54729877      1.02308974      0.21820829
H       0.53994638     -0.75413938      0.32912353
H       3.98306777      0.18404810      1.29598348
H       2.62831360     -0.60671519      1.81501704
H       2.63514404      1.04434648      1.71197579
H       4.19864725     -1.19824275     -0.68207220
H       2.78869819     -1.28509949     -1.82522405
H       2.79924184      1.26352426     -1.98428132
H       4.20901497      1.30785409     -0.83847541
