15

 C      0.89686664      0.10947449     -0.10351204
 C      2.39300187      0.10652238     -0.05163790
 N      2.89151458      0.19223854      1.35486415
 C      3.23758452     -0.70736205     -0.97156602
 C      3.24379039      0.79272664     -1.06518518
 H      0.57394096      0.04598065     -1.14229962
 H      0.47693173      1.02933083      0.31354655
 H      0.46957934     -0.74789829      0.42446179
 H      3.91270073      0.19028918      1.39132174
 H      2.55794656     -0.60047411      1.91035530
 H      2.56477701      1.05058756      1.80731405
 H      4.12828021     -1.19200167     -0.58673395
 H      2.71833114     -1.27885841     -1.72988579
 H      2.72887480      1.26976534     -1.88894306
 H      4.13864793      1.31409517     -0.74313715
