15

C       1.40588824      0.05379787     -1.35459280
C      -0.03049129     -0.27673722     -0.98207762
C      -0.52943536      0.49789794      0.19765942
C      -1.54101205     -0.02743222      1.12555851
N      -0.12031006      0.00283333      1.55408710
H       1.70431097     -0.51231841     -2.23682810
H       2.10599171     -0.19729433     -0.55365427
H       1.52293574      1.11426862     -1.58718397
H      -0.70373658     -0.03759341     -1.81147334
H      -0.15621720     -1.34952268     -0.79474820
H      -0.44115600      1.57860821      0.14130691
H      -1.92660352     -1.02804862      0.97357341
H      -2.18096130      0.65038566      1.67556729
H       0.37865238     -0.87943458      1.59933414
H       0.15599932      0.67110382      2.26471051
