13

C       0.77622105      0.06960849     -1.84499825
C       0.31088282      0.86523930     -0.89209552
C      -0.61465046      0.41110230      0.16338228
C      -0.64185380     -0.96669264      0.67230984
N      -0.00009200      0.07788062      1.50347200
H       1.42860333      0.45516860     -2.61885419
H       0.51246324     -0.98074610     -1.91114192
H       0.55491009      1.92330519     -0.88079067
H      -1.51935469      0.99555470      0.30393858
H      -1.55583357     -1.36537740      1.09277787
H       0.05667583     -1.69368014      0.27915242
H      -0.46502939      0.37989042      2.35298653
H       1.01392756      0.07883807      1.55234023
