17

C       1.02761753     -0.03602752      0.10153386
C       2.54998018     -0.08659450      0.04868239
C       3.03887898     -1.20263788     -0.86664044
C       3.05240206      1.27649845     -0.39184232
N       4.55937157      1.32529352     -0.41897786
H       0.63441412     -0.98471173      0.46793473
H       0.60522004      0.13630811     -0.89206117
H       0.66909213      0.75174520      0.76750200
H       2.91876232     -0.27055243      1.06725711
H       2.72608947     -1.03235575     -1.90126637
H       2.61466285     -2.15701058     -0.55235117
H       4.12568616     -1.34403328     -0.85028029
H       2.72122379      1.51888070     -1.40385815
H       2.73052210      2.07060341      0.28302720
H       4.92599166      0.60923263     -1.05015385
H       4.94592304      1.14117461      0.50933127
H       4.90741479      2.23356923     -0.73086114
