13

C       0.82907892     -0.24305182     -0.02508724
C       2.27306251     -0.22473139     -0.05708394
C       3.47591174     -0.22587487     -0.08427703
C       4.91327640     -0.25055747     -0.12570563
N       5.46102801      1.10259833      0.29712387
H       0.47160857     -1.27532484     -0.00197221
H       0.41301277      0.24605692     -0.90806663
H       0.45558731      0.26542876      0.86637755
H       5.30395828     -0.44048552     -1.12826555
H       5.34355021     -0.98420669      0.56018185
H       5.10901066      1.83280443     -0.32627066
H       6.48336416      1.12470062      0.28302738
H       5.14143848      1.32970094      1.24158586
