17

C       1.18701578      0.24536375     -0.86938863
C       2.64112399      0.48564735     -0.49253552
C       3.06289304     -0.41509082      0.64686222
N       4.49568876     -0.17884958      1.02895541
C       4.98938689     -1.02577753      2.14783328
H       0.89742406      0.90080113     -1.69031689
H       0.51885057      0.44928460     -0.02989367
H       1.02364632     -0.78472531     -1.19261755
H       2.77779668      1.53414899     -0.20338516
H       3.28302139      0.30570017     -1.36269840
H       2.98308867     -1.47178018      0.38420195
H       2.46995729     -0.24019394      1.54689456
H       4.60734111      0.80771175      1.27190287
H       5.08066409     -0.32699533      0.20395349
H       4.37857472     -0.83100153      3.02694787
H       6.02981442     -0.77947694      2.35201980
H       4.90144642     -2.07112518      1.85814556
