15

C       1.64946293     -0.00327951     -1.01317885
C       0.46551509      0.74576224     -0.45298352
N      -0.15713068      0.00238733      0.66911597
C      -1.55827585      0.22958569      1.07506660
C      -1.17772161     -1.03921805      0.43379362
H       2.07897018      0.57564088     -1.83167810
H       1.36354481     -0.97942629     -1.40914118
H       2.43280288     -0.14046112     -0.26438794
H      -0.31843641      0.89258364     -1.19849482
H       0.74600449      1.72465469     -0.05916541
H       0.48544661     -0.19521885      1.43063681
H      -1.72414732      0.26067647      2.14414281
H      -2.06373222      0.98748956      0.49058546
H      -1.40958878     -1.19268716     -0.61234046
H      -1.06883310     -1.93196353      1.03573501
