17

 C      0.36567992     -0.06289106      2.48065400
 C     -0.51188090      0.11347092      1.26619400
 N      0.27590294     -0.04484873     -0.00000000
 C     -0.51188090      0.11347092     -1.26619400
 C      0.36567992     -0.06289106     -2.48065400
 H     -0.24121565      0.05907576      3.37843100
 H      1.16182091      0.68425187      2.52146300
 H      0.81136160     -1.05960108      2.52146300
 H     -0.96339589      1.10571983      1.22523200
 H     -1.31167883     -0.62730365      1.22523200
 H      0.72303945     -0.96462939     -0.00000000
 H      1.04366543      0.63077566     -0.00000000
 H     -0.96339589      1.10571983     -1.22523200
 H     -1.31167883     -0.62730365     -1.22523200
 H      1.16182091      0.68425187     -2.52146300
 H     -0.24121565      0.05907576     -3.37843100
 H      0.81136160     -1.05960108     -2.52146300
