15

C       0.97300143     -0.05264557     -0.03742805
C       2.45499607     -0.21324473     -0.29676486
N       3.21271866      0.26865525      0.94340578
C       2.88329335     -1.61533999     -0.57873359
C       3.63088058     -1.94763930     -1.62120241
H       0.42681064     -0.34905481     -0.93304568
H       0.70352436      0.98211261      0.18808060
H       0.63690177     -0.69597809      0.78025505
H       2.78906074      0.45217513     -1.09591142
H       2.97205865     -0.30759965      1.75323827
H       2.98410826      1.23863392      1.17148413
H       4.22165625      0.19371796      0.79936862
H       2.51353786     -2.38067819      0.10171104
H       3.98448642     -1.20909237     -2.33439370
H       3.90081296     -2.97913419     -1.81265579
