15

C       1.12117689      0.01221226     -0.03567708
N       2.59357601      0.00585945      0.02006345
C       3.31699414      1.08325245      0.80745554
C       4.29767661      0.03107460      1.33571873
C       3.30575826     -1.03671369      0.86263894
H       0.78776327      0.89216962     -0.58520849
H       0.73230536      0.04073092      0.98073864
H       0.77830945     -0.89156113     -0.53877740
H       2.96252567     -0.02082996     -0.93013491
H       2.63404934      1.47166656      1.56175703
H       3.68487085      1.89287842      0.18056245
H       4.50436235      0.05773589      2.40204153
H       5.23839589      0.01181174      0.78724193
H       3.66486544     -1.88170801      0.27881615
H       2.61894548     -1.37810412      1.63593748
