15

 C      1.01024551      0.01244025     -0.04950540
 N      2.48264463      0.00608744      0.00623513
 C      3.20606276      1.08348044      0.79362722
 C      4.18674523      0.03130259      1.32189041
 C      3.19482688     -1.03648570      0.84881062
 H      0.67683189      0.89239761     -0.59903681
 H      0.62137398      0.04095891      0.96691032
 H      0.66737807     -0.89133314     -0.55260572
 H      2.85159429     -0.02060197     -0.94396323
 H      2.52311796      1.47189455      1.54792871
 H      3.57393947      1.89310641      0.16673414
 H      4.39343097      0.05796388      2.38821321
 H      5.12746451      0.01203973      0.77341362
 H      3.55393406     -1.88148002      0.26498783
 H      2.50801410     -1.37787613      1.62210916
