15

 C      2.76577484      1.27991883      0.44708556
 N      2.19116589     -0.02025896     -0.00355499
 C      2.85368708     -1.20561731      0.58035957
 C      2.76937292     -2.49984827     -0.15041603
 C      4.06296527     -1.74379529     -0.10050111
 H      2.22863995      2.09394357     -0.03657091
 H      3.81863515      1.30084780      0.17545424
 H      2.65769520      1.34776444      1.52754881
 H      2.24904092     -0.08043855     -1.02238328
 H      1.19360569     -0.04934049      0.22132902
 H      2.79900758     -1.18287969      1.66132469
 H      2.65418126     -3.39436554      0.44718640
 H      2.24164278     -2.52808510     -1.09751392
 H      4.39685227     -1.26555910     -1.01520174
 H      4.86540453     -2.10518870      0.52866365
