16
0124.log
C      1.368828    0.000378    1.457101
N     -0.000352   -0.000695    0.995619
C     -0.190395   -0.310638   -0.413078
C     -1.677430   -0.458296   -0.684271
C      0.441480    0.691031   -1.377564
H      1.389201    0.198601    2.530996
H      2.031665    0.731683    0.968553
H      1.802629   -0.991897    1.301376
H     -0.446319    0.883397    1.211801
H      0.286562   -1.286473   -0.574980
H     -2.193754    0.493373   -0.517786
H     -2.117038   -1.201837   -0.017657
H     -1.863095   -0.756368   -1.718680
H     -0.018533    1.677868   -1.259044
H      0.298257    0.379634   -2.415619
H      1.515531    0.796369   -1.210792
