14
0125.log
C      1.111951   -0.000392    2.081571
N      0.000189    0.000739    1.157595
C      0.397012   -0.260056   -0.211642
C     -0.787401   -0.273515   -1.118939
C     -0.910696    0.476525   -2.204668
H      0.760377    0.255127    3.083060
H      1.922453    0.697479    1.811556
H      1.545232   -1.003542    2.130096
H     -0.487950    0.886831    1.199459
H      0.874273   -1.249236   -0.229309
H      1.147946    0.455214   -0.592091
H     -1.588534   -0.950455   -0.830629
H     -0.129002    1.167917   -2.505269
H     -1.790026    0.423653   -2.836262
