15

N       1.14365054     -0.04038421      0.01271669
C       2.64962702     -0.03860208      0.08716899
C       3.30802402      1.04543071      0.93818269
C       4.33331945     -0.03341022      1.35470143
C       3.31029378     -1.11663621      0.94402364
H       0.79393201     -0.86878238     -0.47461655
H       0.79219624      0.78463268     -0.47908335
H       0.73917438     -0.03827221      0.95166410
H       3.00115620     -0.04102211     -0.94522062
H       2.68015977      1.33210613      1.78708376
H       3.65849823      1.94395669      0.43302092
H       5.20749547     -0.03425025      0.70405921
H       4.66133426     -0.03026549      2.39127622
H       3.66265663     -2.01714067      0.44372206
H       2.68302800     -1.40003840      1.79446482
