10

 N      0.02604907     -0.00145229      2.14439004
 C     -0.11469343     -0.22796201      1.02743798
 C     -0.27531351     -0.49120365     -0.37352767
 C     -0.52282064      0.61424691     -1.32346339
 N      0.82735552      0.01303304     -1.24793798
 H     -0.61248754     -1.48817423     -0.63932935
 H     -1.05584159      0.40179775     -2.24134206
 H     -0.57652717      1.62720839     -0.94490067
 H      1.56836712      0.54924736     -0.80161776
 H      1.14395076     -0.58562872     -2.00629471
