15

 N      1.05613236      0.07088238     -0.06481631
 C      2.56529613      0.10010530     -0.02559535
 C      3.07704097     -0.33194175      1.33479940
 C      4.57509190     -0.37908239      1.33344325
 C      5.33866365      0.42813146      2.05268600
 H      0.69226203      0.36157797     -0.97463258
 H      0.66130274      0.69375001      0.64340069
 H      0.70462284     -0.86980359      0.12760006
 H      2.86430349      1.12050877     -0.26643689
 H      2.90650552     -0.56165552     -0.82286781
 H      2.67632934     -1.32505085      1.57765445
 H      2.73023631      0.36386996      2.10580544
 H      5.03150217     -1.13564848      0.69960309
 H      4.91843686      1.18470272      2.70812081
 H      6.41864140      0.35230834      2.02327701
