12
0133.log
N     -0.000235    0.000054    2.320286
C      0.525755   -0.000049    0.966669
C     -0.627726   -0.006736   -0.034122
C     -0.175657    0.019515   -1.413835
C      0.222041    0.042500   -2.546532
H      0.742289    0.141752    2.992631
H     -0.428737   -0.891712    2.538141
H      1.196046   -0.841609    0.738807
H      1.107034    0.914284    0.823263
H     -1.272771    0.854065    0.166759
H     -1.243504   -0.899985    0.125030
H      0.566898    0.064807   -3.552941
