13

N       0.02184755     -0.00528027      1.76813284
C       0.50116501      0.01605398      0.33892721
C      -0.67670501      0.00329659     -0.62254698
C      -0.18785699      0.02423565     -1.98776581
C       0.24424065      0.04194663     -3.10458714
H       0.80500293      0.00304342      2.42529278
H      -0.53481664     -0.84175337      1.95935101
H      -0.56460861      0.80701668      1.97397134
H       1.10595612      0.91492566      0.22119540
H       1.13799429     -0.85815522      0.20547276
H      -1.28933167     -0.89277027     -0.46362211
H      -1.32125021      0.87368994     -0.44795818
H       0.61322538      0.05748897     -4.10545153
