15

C      -0.53394404     -0.63076073      2.06509999
O       0.07208716     -0.06001792      0.91212270
C      -0.80536121      0.12620466     -0.16286724
C       0.01932404      0.79890585     -1.23888188
N       1.31047964      0.04067223     -1.33970359
H       0.24911207     -0.74522931      2.81131871
H      -0.96594508     -1.60929131      1.83259992
H      -1.31308248      0.03073009      2.45387212
H      -1.21509366     -0.83382015     -0.51167369
H      -1.64974413      0.77577176      0.09655620
H      -0.46971952      0.80997576     -2.21139986
H       0.28153916      1.81517112     -0.94589228
H       1.19863846     -0.84270288     -1.83953695
H       1.57616019     -0.17660405     -0.36558730
H       2.05060341      0.57500787     -1.79421484
