14
0198.log
C     -0.623872   -0.726947    1.998326
O     -0.000079    0.000136    0.978245
C     -0.748209    0.012970   -0.213771
C      0.047202    0.738554   -1.268615
N      1.259976   -0.000042   -1.573581
H      0.020360   -0.685500    2.877159
H     -0.770300   -1.778058    1.713127
H     -1.603486   -0.300106    2.256688
H     -1.713391    0.517047   -0.051228
H     -0.948223   -1.017203   -0.544517
H      0.222749    1.767851   -0.918195
H     -0.566794    0.803073   -2.172401
H      1.807650   -0.100948   -0.727489
H      1.828953    0.502861   -2.242066
