13

O       0.81596980     -0.00793664      0.20676096
C       2.18315990     -0.02873712      0.04338343
C       2.91653014      1.03912991      0.87700675
N       3.85080504     -0.02695830      1.41881768
C       2.92803976     -1.10032592      0.87167671
H       0.35931991     -0.14875871     -0.62698690
H       2.49039943     -0.02506729     -1.00523688
H       2.28952178      1.41290377      1.68494907
H       3.44078426      1.85220552      0.38000445
H       4.76460329     -0.02075139      0.96877615
H       3.99712216     -0.02827572      2.42705047
H       3.46328233     -1.90349140      0.37002036
H       2.30625819     -1.48535050      1.67823955
