13

 O      1.03136087     -0.01923363      0.23819045
 C      2.39855097     -0.04003411      0.07481292
 C      3.13192121      1.02783292      0.90843624
 N      4.06619611     -0.03825528      1.45024717
 C      3.14343083     -1.11162291      0.90310620
 H      0.57471098     -0.16005570     -0.59555741
 H      2.70579050     -0.03636428     -0.97380739
 H      2.50491285      1.40160678      1.71637856
 H      3.65617533      1.84090854      0.41143394
 H      4.97999436     -0.03204837      1.00020564
 H      4.21251323     -0.03957270      2.45847996
 H      3.67867340     -1.91478838      0.40144985
 H      2.52164926     -1.49664749      1.70966904
