11

O       0.65067849     -0.07093913      0.54756025
C       1.78573110     -0.07043566      0.24624510
C       2.82147959      1.02803333     -0.02770228
N       3.84134827     -0.06952384     -0.29944644
C       2.82189053     -1.16798561     -0.02982367
H       2.64058046      1.64759060     -0.90638121
H       3.10048321      1.64600309      0.82606743
H       4.20985407     -0.06853671     -1.24992560
H       4.63275020     -0.06999648      0.34311944
H       3.10112572     -1.78749925      0.82275061
H       2.64122296     -1.78591174     -0.90969802
