15
0323.log
C      1.142445   -0.000397   -1.235289
C      0.451186    1.329438   -1.285052
C     -0.316137    0.095879   -0.915986
C     -0.849680   -0.089681    0.464848
C     -0.533921   -1.300662    1.247247
N     -0.000332    0.000631    1.644027
H      1.849282   -0.172823   -0.430848
H      1.424791   -0.471258   -2.168389
H      0.272565    1.782974   -2.251822
H      0.668707    2.032887   -0.489910
H     -0.983678   -0.286380   -1.682820
H     -1.825641    0.365324    0.619171
H      0.142776   -2.016720    0.790373
H     -1.265318   -1.725789    1.926103
H      0.976824    0.070368    1.378956
