16

 C      1.17658632      0.04777783     -1.20002049
 C      0.40879097      1.32683909     -1.32098687
 C     -0.29359060      0.07353305     -0.90455426
 C     -0.85997682     -0.08916174      0.45755266
 C     -0.61814655     -1.29281715      1.27151372
 N      0.07989767     -0.03096306      1.61629025
 H      1.48827989     -0.46384864     -2.10097438
 H      1.90772299     -0.03251471     -0.40029048
 H      0.20117450      1.71794442     -2.30782306
 H      0.58331400      2.08874326     -0.56963782
 H     -0.93746631     -0.39209139     -1.64408344
 H     -1.77342530      0.45838627      0.67037467
 H      0.04433302     -2.05624778      0.88340341
 H     -1.34603838     -1.61063549      2.00659343
 H     -0.20133519      0.46854323      2.45239319
 H      1.07162906      0.02289986      1.40764675
