16

 C      0.68296988      1.38212558     -0.54492664
 C     -0.45891053      1.01607395      0.30918307
 C     -1.46708256      0.00710247     -0.19955363
 C     -0.82512997     -1.36125000      0.07710440
 C      0.67855102     -1.12586690      0.00230166
 N      0.84389016      0.29102791      0.43947514
 H      1.25691550      2.27372403     -0.32395034
 H      0.70293024      1.04596513     -1.57465881
 H     -0.70360830      1.66345695      1.14280899
 H     -2.42073975      0.11796993      0.31411850
 H     -1.64744356      0.16049462     -1.26522298
 H     -1.14813736     -2.12539222     -0.62902223
 H     -1.09422950     -1.70281074      1.07856406
 H      1.08258207     -1.22003685     -1.00590572
 H      1.26032899     -1.75890700      0.67044933
 H      1.43765804      0.47608529      1.23975580
