16

C       0.70573385      1.47075928     -0.51415351
C      -0.43614656      1.10470765      0.33995620
C      -1.44431858      0.09573617     -0.16878050
C      -0.80236599     -1.27261630      0.10787753
C       0.70131500     -1.03723320      0.03307479
N       0.86665414      0.37966161      0.47024827
H       1.27967947      2.36235773     -0.29317721
H       0.72569422      1.13459883     -1.54388568
H      -0.68084433      1.75209065      1.17358212
H      -2.39797577      0.20660363      0.34489163
H      -1.62467958      0.24912832     -1.23444985
H      -1.12537338     -2.03675852     -0.59824910
H      -1.07146552     -1.61417704      1.10933719
H       1.10534605     -1.13140315     -0.97513259
H       1.28309297     -1.67027330      0.70122246
H       1.46042201      0.56471899      1.27052893
