16

C       0.71361341      1.24872921      0.25648900
C      -0.74901241      1.16428135     -0.20671715
C      -1.03661223     -0.31025313     -0.28275053
N      -0.60718529     -1.06555701      0.93679894
C       0.24221591     -1.04404897     -0.29618417
C       1.37126036     -0.05233821     -0.22898987
H       1.21631491      2.13196048     -0.13377034
H       0.77337685      1.33294182      1.34571692
H      -1.44774835      1.70641620      0.43241259
H      -0.86853352      1.55617305     -1.22041803
H      -1.94287976     -0.69910257     -0.72966562
H      -0.29734145     -0.54042663      1.74808544
H      -1.09759264     -1.92426933      1.15809432
H       0.35666427     -2.01858858     -0.75382152
H       1.75384725      0.05144224     -1.24796522
H       2.20187403     -0.38774925      0.39407458
