14

 C      0.28517502      1.47150450     -0.32608099
 C     -0.76372095      0.80819727      0.47664208
 C     -1.35300915     -0.42440380     -0.09731428
 C     -0.43842936     -1.37396746     -0.24335332
 C      0.90557074     -0.95699206      0.26506029
 N      0.67918370      0.45395656      0.67289922
 H      0.60517926      2.47450884     -0.07127581
 H      0.42401493      1.16154688     -1.35444442
 H     -1.24557043      1.35251248      1.28141057
 H     -2.39786460     -0.48712197     -0.36733818
 H     -0.60118332     -2.35136416     -0.67675239
 H      1.70135719     -1.00055092     -0.48196019
 H      1.22394069     -1.52390404      1.14352420
 H      1.15966937      0.79047450      1.49931815
