14

C       0.15780480      1.43971581     -0.32431989
C      -0.89109117      0.77640859      0.47840318
C      -1.48037937     -0.45619248     -0.09555318
C      -0.56579958     -1.40575615     -0.24159222
C       0.77820052     -0.98878075      0.26682139
N       0.55181348      0.42216787      0.67466032
H       0.47780904      2.44272015     -0.06951471
H       0.29664471      1.12975819     -1.35268332
H      -1.37294065      1.32072380      1.28317167
H      -2.52523482     -0.51891065     -0.36557708
H      -0.72855354     -2.38315285     -0.67499129
H       1.57398697     -1.03233961     -0.48019909
H       1.09657047     -1.55569273      1.14528530
H       1.03229915      0.75868582      1.50107925
