15
0331.log
C      1.241659   -0.000013    0.592056
C      1.048776    0.789238   -0.691835
C     -0.208994    0.365022   -1.381562
C     -1.146441   -0.347139   -0.767884
C     -1.050555   -0.738389    0.670949
N      0.000051    0.000276    1.342386
H      2.022700    0.454477    1.206340
H      1.578274   -1.020438    0.333762
H      1.908195    0.639559   -1.354497
H      1.010003    1.862565   -0.470198
H     -0.340677    0.647381   -2.422204
H     -2.032049   -0.671487   -1.305708
H     -0.912886   -1.836028    0.726415
H     -2.003632   -0.524982    1.167961
H      0.145413   -0.367494    2.272372
