16

 C      1.27916159      0.03068306      0.59354833
 C      1.06680800      0.76858857     -0.71007684
 C     -0.21418664      0.37141183     -1.37113243
 C     -1.16058749     -0.33645648     -0.76842474
 C     -1.07690487     -0.77058606      0.65599824
 N     -0.00979459      0.00535409      1.36419746
 H      2.03470423      0.49793277      1.22504796
 H      1.55172267     -1.01260755      0.42789884
 H      1.91171303      0.54439199     -1.36714233
 H      1.09835837      1.85423485     -0.55749689
 H     -0.35857738      0.68862160     -2.39786946
 H     -2.06386009     -0.62399981     -1.29374783
 H     -0.82952614     -1.83094837      0.76158255
 H     -2.01422282     -0.59397931      1.18822858
 H     -0.33469920      0.96597165      1.49460158
 H      0.14313459     -0.38441836      2.29490010
