18

 C      0.72389646      1.25801288     -0.22589377
 C     -0.72797663      1.24556382      0.23361929
 C     -1.44767102     -0.00260386     -0.22888964
 N     -0.70049164     -1.22234862      0.23407569
 C      0.72420603     -1.25220283     -0.24456408
 C      1.44755581     -0.00637738      0.21833651
 H      0.76481641      1.34240338     -1.31739795
 H      1.23220209      2.13708638      0.17277772
 H     -0.78409965      1.31704344      1.32641471
 H     -1.27088065      2.10904999     -0.15619819
 H     -1.48858350     -0.06823532     -1.31830469
 H     -2.46245244     -0.07536799      0.16385490
 H     -0.70484628     -1.24267633      1.25647143
 H     -1.18718719     -2.06473529     -0.07502521
 H      1.17490632     -2.16914456      0.13750897
 H      0.67642468     -1.31383519     -1.33389703
 H      2.46261594     -0.04001586     -0.18200522
 H      1.54884641     -0.02580478      1.31000522
