16

C       0.26826109     -0.83266449      1.03673900
C      -0.86325534     -0.71626384     -0.00000000
C       0.26826109     -0.83266449     -1.03673900
N       1.04285309     -0.04459690      0.00000000
C       0.34529452      1.28724477      0.00000000
C      -1.11971753      0.79456052      0.00000000
H       0.18092357     -0.32716635      1.99736300
H       0.69541333     -1.82878305      1.13594100
H      -1.71106759     -1.39214567     -0.00000000
H       0.69541333     -1.82878305     -1.13594100
H       0.18092357     -0.32716635     -1.99736300
H       2.06151853     -0.02855389      0.00000000
H       0.63862890      1.84069047     -0.89030200
H       0.63862890      1.84069047      0.89030200
H      -1.66496772      1.12237559      0.88407600
H      -1.66496772      1.12237559     -0.88407600
