16

C       0.72136204      1.25101714     -0.69774818
C      -0.29637354      0.98322401      0.36531157
C      -1.39769538      0.01506750      0.04489403
N      -0.67213305     -1.15424054     -0.58001711
C       0.70924365     -1.20627625      0.03098748
C       1.00523411      0.22871220      0.35672049
H       0.53470029      0.94067439     -1.72242735
H       1.26313210      2.18486187     -0.63079745
H      -0.50842465      1.73541175      1.11305229
H      -1.89218552     -0.34512677      0.94788168
H      -2.15019568      0.37012612     -0.66051650
H      -1.17889811     -2.02988633     -0.45479249
H      -0.59238638     -1.00522518     -1.58512570
H       1.38430995     -1.67874492     -0.68384552
H       0.65133954     -1.81954933      0.93109350
H       1.77069595      0.41425833      1.09800927
