16

 C      0.66923857      1.16170213     -0.75073040
 C     -0.34849701      0.89390900      0.31232935
 C     -1.44981885     -0.07424751     -0.00808818
 N     -0.72425652     -1.24355555     -0.63299932
 C      0.65712018     -1.29559126     -0.02199473
 C      0.95311064      0.13939719      0.30373828
 H      0.48257682      0.85135938     -1.77540956
 H      1.21100863      2.09554686     -0.68377967
 H     -0.56054812      1.64609674      1.06007007
 H     -1.94430899     -0.43444178      0.89489947
 H     -2.20231915      0.28081111     -0.71349872
 H     -1.23102158     -2.11920134     -0.50777470
 H     -0.64450985     -1.09454019     -1.63810791
 H      1.33218648     -1.76805993     -0.73682773
 H      0.59921607     -1.90886434      0.87811129
 H      1.71857248      0.32494332      1.04502706
