18

C       0.96764398      0.08642845     -0.23706362
C       2.46715538      0.05499267     -0.14645545
C       3.26004779     -0.90249115     -0.96875204
C       3.31036015      0.56472253     -1.29374893
C       4.56886059      1.30846109     -1.02118199
N       4.24763514      2.73588701     -0.61609803
H       0.55961367      1.05160359      0.07298726
H       0.52991017     -0.68000594      0.40518393
H       0.63294089     -0.10820759     -1.25850450
H       2.87099556      0.23895576      0.84793281
H       4.14177346     -1.35768119     -0.53413263
H       2.72787970     -1.53581406     -1.66701230
H       2.77966803      0.87049668     -2.19162861
H       5.22798816      1.38013004     -1.88822305
H       5.12716929      0.87834408     -0.18856468
H       3.76879593      3.22629715     -1.37388170
H       5.08300657      3.27081634     -0.37084741
H       3.61609855      2.72960754      0.18801095
