18

 C      0.93555698      0.21245852     -0.20329027
 C      2.43506838      0.18102274     -0.11268211
 C      3.22796078     -0.77646108     -0.93497870
 C      3.27827314      0.69075260     -1.25997559
 C      4.53677359      1.43449116     -0.98740865
 N      4.21554814      2.86191708     -0.58232469
 H      0.52752667      1.17763366      0.10676061
 H      0.49782317     -0.55397587      0.43895728
 H      0.60085388      0.01782248     -1.22473115
 H      2.83890856      0.36498583      0.88170615
 H      4.10968645     -1.23165112     -0.50035929
 H      2.69579269     -1.40978399     -1.63323896
 H      2.74758102      0.99652675     -2.15785527
 H      5.19590115      1.50616011     -1.85444971
 H      5.09508229      1.00437414     -0.15479134
 H      3.73670893      3.35232722     -1.34010836
 H      5.05091957      3.39684640     -0.33707407
 H      3.58401155      2.85563761      0.22178429
