18

 C      1.16581491      0.00319849     -1.77463281
 C      0.74256998      0.55989870     -0.44521062
 C     -0.60975084      1.18646314     -0.23395518
 C     -0.28383819     -0.12001366      0.41069166
 C     -0.96651144     -1.40819061      0.07069645
 N     -0.01694242     -0.03505706      1.88085351
 H      1.91259885     -0.78480471     -1.65947905
 H      1.60716107      0.79641990     -2.38025090
 H      0.32239919     -0.40195898     -2.33501488
 H      1.55023363      1.04034041      0.10442028
 H     -0.68104140      2.08182873      0.37432123
 H     -1.32319650      1.15133299     -1.04847056
 H     -1.93086835     -1.49767597      0.57909786
 H     -0.35033393     -2.27541983      0.32601491
 H     -1.16283183     -1.45315161     -0.99893132
 H     -0.88953716     -0.07135094      2.41535843
 H      0.46113150      0.83503591      2.12237130
 H      0.57265683     -0.81196622      2.19166448
