18

C       1.16438781      0.10119673     -1.76764480
C       0.74114287      0.65789694     -0.43822261
C      -0.61117795      1.28446138     -0.22696717
C      -0.28526529     -0.02201542      0.41767967
C      -0.96793854     -1.31019237      0.07768447
N      -0.01836953      0.06294118      1.88784152
H       1.91117175     -0.68680647     -1.65249104
H       1.60573396      0.89441814     -2.37326289
H       0.32097209     -0.30396074     -2.32802687
H       1.54880652      1.13833865      0.11140829
H      -0.68246851      2.17982697      0.38130924
H      -1.32462361      1.24933123     -1.04148255
H      -1.93229545     -1.39967773      0.58608588
H      -0.35176103     -2.17742159      0.33300293
H      -1.16425893     -1.35515337     -0.99194330
H      -0.89096427      0.02664730      2.42234644
H       0.45970439      0.93303415      2.12935931
H       0.57122973     -0.71396798      2.19865249
