17
0354.log
C      1.047115   -0.000050   -1.663911
C      0.027808    0.115862   -0.561842
C     -0.774743    1.387462   -0.585148
C     -0.650033   -1.150707   -0.109257
C      0.377732   -0.514578    0.769901
N     -0.000426    0.000463    2.051065
H      0.568658   -0.008884   -2.648712
H      1.628426   -0.920939   -1.570776
H      1.747303    0.841324   -1.642205
H     -1.361838    1.461925   -1.505410
H     -0.120142    2.264225   -0.540306
H     -1.468806    1.449479    0.255253
H     -0.410465   -2.082868   -0.607350
H     -1.684111   -1.074093    0.212236
H      1.345044   -1.011101    0.790856
H     -1.000883    0.105992    2.137765
H      0.428379    0.897962    2.239344
