18

C       1.55998391      0.05599649     -1.29447196
C       0.66301476      0.58425626     -0.21052761
C      -0.82981671      0.35010170     -0.17156517
C      -1.57610127     -0.43590675     -1.21262110
C       0.06899984     -0.33936189      0.80102491
N       0.04061317      0.07874430      2.22611389
H       2.59502005      0.00527363     -0.95136209
H       1.52838826      0.71466685     -2.16397857
H       1.26617080     -0.94172622     -1.62185139
H       0.95973651      1.55814575      0.17437195
H      -1.39028799      1.18953820      0.23570687
H      -1.00817448     -1.29846327     -1.56249168
H      -1.79186521      0.19387633     -2.07732098
H      -2.52710046     -0.79814448     -0.81767632
H       0.23434887     -1.40701920      0.71995712
H      -0.11538811      1.08609306      2.30289764
H       0.92429554     -0.13097073      2.69803307
H      -0.71129248     -0.38751703      2.74072142
