17
0355.log
C      1.547153    0.000004   -1.361449
C      0.684944    0.549625   -0.260243
C     -0.806783    0.305661   -0.196622
C     -1.555061   -0.485398   -1.232588
C      0.093194   -0.343974    0.799754
N      0.000068   -0.000057    2.189468
H      1.473790    0.600292   -2.273276
H      1.269865   -1.023917   -1.620158
H      2.598359   -0.016116   -1.060044
H      0.987205    1.530265    0.099040
H     -1.371820    1.147167    0.199036
H     -1.806826    0.131469   -2.100031
H     -0.975379   -1.337505   -1.591552
H     -2.488760   -0.876907   -0.819853
H      0.258191   -1.407968    0.641971
H     -0.429435    0.908314    2.307859
H      0.917794    0.041986    2.616680
