18

 C      1.53958617      0.01942606     -0.77293394
 C      0.14614488      0.32005276     -0.27704151
 C     -0.30270473      1.72878794     -0.55808222
 C     -0.87574615     -0.81178036     -0.53212806
 C     -0.69119382     -1.28034091      0.91108824
 N      0.06563864     -0.01316850      1.24231051
 H      2.26713537      0.73214111     -0.37701515
 H      1.55047014      0.10498953     -1.86080362
 H      1.85831460     -0.99542306     -0.52202910
 H      0.40994422      2.46234173     -0.17366950
 H     -1.29191965      1.93474175     -0.14124059
 H     -0.36976535      1.86767299     -1.63906015
 H     -0.59521910     -1.52705168     -1.30196477
 H     -1.87883068     -0.43943596     -0.73779967
 H     -1.57488434     -1.40330415      1.53223637
 H     -0.03216615     -2.13663078      1.03564761
 H     -0.49240855      0.66393662      1.76035244
 H      0.95759294     -0.12932573      1.72102592
