18

C       1.48154098     -0.04772385     -0.73233693
C       0.08809969      0.25290285     -0.23644450
C      -0.36074992      1.66163803     -0.51748521
C      -0.93379134     -0.87893027     -0.49153105
C      -0.74923901     -1.34749082      0.95168525
N       0.00759345     -0.08031841      1.28290752
H       2.20909018      0.66499120     -0.33641814
H       1.49242495      0.03783962     -1.82020661
H       1.80026941     -1.06257297     -0.48143209
H       0.35189903      2.39519182     -0.13307249
H      -1.34996484      1.86759184     -0.10064358
H      -0.42781054      1.80052308     -1.59846314
H      -0.65326429     -1.59420159     -1.26136776
H      -1.93687587     -0.50658587     -0.69720266
H      -1.63292953     -1.47045406      1.57283338
H      -0.09021134     -2.20378069      1.07624462
H      -0.55045374      0.59678671      1.80094945
H       0.89954775     -0.19647564      1.76162293
