18

 C      1.05040584     -0.12272898      0.39053661
 C      2.38472169      0.13607871     -0.25140718
 C      3.24593241      1.25518182      0.35536666
 C      4.12277757      0.19245923      1.03332986
 C      5.61376154      0.24297449      0.87953387
 N      3.43814695     -0.88949026      0.18929120
 H      0.60247763     -1.05204493      0.03178497
 H      0.37320428      0.69214930      0.12858916
 H      1.12088793     -0.15400683      1.48106864
 H      2.31248586      0.13413184     -1.33834380
 H      2.72170230      1.93318262      1.02569108
 H      3.78876874      1.83701855     -0.38960177
 H      3.83179725      0.01270276      2.06876015
 H      5.90645580      0.38347660     -0.16446122
 H      6.09410283     -0.65613122      1.27133576
 H      5.99652743      1.09479193      1.44548408
 H      4.02857839     -1.21719151     -0.57425287
 H      3.08231578     -1.70118985      0.69247598
