18

 C     -0.97559067      0.81683017      1.59230300
 C     -0.43458690     -0.28505978      0.74066200
 C     -0.43458690     -0.28505978     -0.74066200
 C     -0.97559067      0.81683017     -1.59230300
 N      0.84061993     -0.04999203     -0.00000000
 C      1.94343322     -1.01626475     -0.00000000
 H     -0.44759439      0.86277357      2.54609600
 H     -2.02663428      0.61144114      1.80513400
 H     -0.91891451      1.79325955      1.11068400
 H     -0.42533353     -1.26718019      1.20288200
 H     -0.42533353     -1.26718019     -1.20288200
 H     -0.91891451      1.79325955     -1.11068400
 H     -2.02663428      0.61144114     -1.80513400
 H     -0.44759439      0.86277357     -2.54609600
 H      1.13693391      0.92152654     -0.00000000
 H      1.52989547     -2.02319327      0.00000000
 H      2.54922413     -0.86926641      0.89354400
 H      2.54922413     -0.86926641     -0.89354400
