16

 C      1.06260884     -0.07718010     -1.89389240
 C      0.38586029      0.02083014     -0.76238700
 C     -1.06409911     -0.35018290     -0.53065706
 C     -1.33048875     -0.00127763      0.92706401
 N      0.03632413     -0.06834141      1.55874508
 C      0.96862061      0.51145690      0.53348437
 H      2.11192274      0.18663003     -1.95654306
 H      0.58761191     -0.41744491     -2.80636085
 H     -1.74307316      0.19591662     -1.18672647
 H     -1.22425663     -1.41547531     -0.71509524
 H     -1.67588526      1.02528644      1.05136028
 H     -2.00576159     -0.67336715      1.45357400
 H      0.28636875     -1.04232567      1.73784842
 H      0.07641314      0.42368531      2.45125716
 H      1.99007996      0.19065177      0.73302541
 H      0.90649227      1.59833356      0.63481966
