15
0363.log
C      1.033883   -0.000331   -1.931981
C      0.391980   -0.006388   -0.772415
C     -1.036971   -0.424174   -0.527431
C     -1.291875    0.050182    0.908987
N      0.000346   -0.000141    1.586662
C      0.961463    0.416157    0.568535
H      0.550168   -0.303600   -2.854187
H      2.070944    0.310987   -2.003160
H     -1.120218   -1.515677   -0.581792
H     -1.729898   -0.007368   -1.261535
H     -2.033570   -0.544447    1.444125
H     -1.641779    1.088434    0.905041
H      0.194155   -0.961454    1.843146
H      1.951504    0.000268    0.764817
H      1.058714    1.508822    0.596403
