18

C      -1.51660506     -0.98357864     -0.00000000
C      -0.36724520     -0.00065890      0.00000000
C      -0.84739003      1.44180188      0.00000000
C       0.72888496     -0.24847146      1.06332300
N       1.79676364     -0.08035908     -0.00000000
C       0.72888496     -0.24847146     -1.06332300
H      -2.14643681     -0.83693538      0.88014100
H      -1.16841599     -2.01916416     -0.00000000
H      -2.14643681     -0.83693538     -0.88014100
H      -1.45864960      1.64005395      0.88238600
H      -1.45864960      1.64005395     -0.88238600
H      -0.02258741      2.16187231      0.00000000
H       0.76592360     -1.27181434      1.43453700
H       0.83737908      0.45947831      1.88283000
H       2.55637142     -0.75897368     -0.00000000
H       2.20575518      0.85256512      0.00000000
H       0.83737908      0.45947831     -1.88283000
H       0.76592360     -1.27181434     -1.43453700
