18

 C     -1.59877344     -0.95817086     -0.00000000
 C     -0.44941358      0.02474888      0.00000000
 C     -0.92955841      1.46720966      0.00000000
 C      0.64671658     -0.22306368      1.06332300
 N      1.71459526     -0.05495131     -0.00000000
 C      0.64671658     -0.22306368     -1.06332300
 H     -2.22860519     -0.81152760      0.88014100
 H     -1.25058437     -1.99375638     -0.00000000
 H     -2.22860519     -0.81152760     -0.88014100
 H     -1.54081798      1.66546173      0.88238600
 H     -1.54081798      1.66546173     -0.88238600
 H     -0.10475579      2.18728009      0.00000000
 H      0.68375522     -1.24640656      1.43453700
 H      0.75521070      0.48488609      1.88283000
 H      2.47420304     -0.73356591     -0.00000000
 H      2.12358680      0.87797289      0.00000000
 H      0.75521070      0.48488609     -1.88283000
 H      0.68375522     -1.24640656     -1.43453700
