17
0365.log
C     -1.620435   -0.943673    0.000000
C     -0.447166    0.010036   -0.000000
C     -0.901572    1.458257   -0.000000
C      0.665041   -0.245870    1.044394
N      1.669374   -0.000171    0.000000
C      0.665041   -0.245870   -1.044394
H     -2.249419   -0.789951    0.882344
H     -1.289964   -1.985448   -0.000000
H     -2.249419   -0.789951   -0.882344
H     -1.508300    1.676244    0.884009
H     -1.508300    1.676244   -0.884009
H     -0.042418    2.132706    0.000000
H      0.641009   -1.279994    1.414904
H      0.716202    0.436238    1.899425
H      2.467279   -0.621265    0.000000
H      0.641009   -1.279994   -1.414904
H      0.716202    0.436238   -1.899425
