18

C       1.03630117     -0.06348003      0.05866250
C       2.54359250     -0.06071875      0.04545307
C       3.29210459      1.02682809      0.85582185
C       4.29033001     -0.03915467      1.31894086
N       5.51558676     -0.04933341      0.43633327
C       3.29630906     -1.12179769      0.88643779
H       0.63783838      0.81011796     -0.46147509
H       0.65551921     -0.04962570      1.08325119
H       0.64128867     -0.95309467     -0.43635093
H       2.89698396     -0.07481540     -0.99238074
H       2.70127872      1.36946540      1.70690491
H       3.68032367      1.90733969      0.33762564
H       4.66051425     -0.02383069      2.34354020
H       5.24567219     -0.06391574     -0.54998756
H       6.09456859     -0.87312043      0.61287686
H       6.09133097      0.78140845      0.58930134
H       3.68799936     -2.01519061      0.39351808
H       2.70678095     -1.44235578      1.74697077
