17
0372.log
C      1.053957   -0.000245   -1.832247
C      0.385588   -0.455764   -0.559886
C      1.190244   -0.495581    0.749706
N     -0.000131   -0.000511    1.457775
C     -0.559095    0.506100    0.190376
C     -2.051122    0.367186    0.026856
H      1.795644   -0.727689   -2.174010
H      1.566086    0.955350   -1.688564
H      0.326262    0.128653   -2.638671
H     -0.123206   -1.412711   -0.711317
H      2.026407    0.218098    0.722008
H      1.563441   -1.462803    1.097354
H      0.169898    0.694624    2.173711
H     -0.254243    1.545306   -0.016200
H     -2.359027   -0.661349    0.228014
H     -2.358005    0.635285   -0.988495
H     -2.586497    1.021866    0.720262
