18

C       1.11907315     -0.00586227     -1.74936342
C       0.42770268     -0.48360913     -0.49791887
C       1.23823856     -0.56106694      0.80384551
N       0.06335715      0.01744796      1.56313558
C      -0.53289208      0.48170408      0.22689478
C      -2.01872875      0.33486794      0.10676182
H       0.40153398      0.13094570     -2.56055967
H       1.85647850     -0.73625378     -2.08721852
H       1.63273541      0.94451245     -1.58415200
H      -0.08129929     -1.43561381     -0.67777035
H       2.06200822      0.15079275      0.84530777
H       1.55552240     -1.52879233      1.18568882
H      -0.51120519     -0.70355745      1.99909206
H       0.26360983      0.73272088      2.26035431
H      -0.21041606      1.51790212      0.10014519
H      -2.33795165     -0.69646324      0.27771636
H      -2.31761087      0.60798556     -0.90760859
H      -2.55183299      0.99589449      0.79338920
