18

 C      1.10026992     -0.02080719     -1.60158001
 C      0.14584887     -0.00550093     -0.43286427
 C      0.90270916     -0.05288553      0.86754186
 N      0.00453893     -0.03678501      2.07190469
 C     -1.11741282      0.79211103     -0.56108646
 C     -1.16989908     -0.70854136     -0.58416182
 H      0.54788279      0.01206240     -2.54096881
 H      1.70916622     -0.92875644     -1.60646063
 H      1.76971159      0.84322066     -1.58002309
 H      1.56701295      0.80814187      0.97084152
 H      1.50017971     -0.96413105      0.94482805
 H     -0.56542838      0.81176240      2.08704591
 H      0.54265480     -0.07313763      2.93904428
 H     -0.63159553     -0.83704083      2.05908176
 H     -1.55096543      1.30430043      0.29347460
 H     -1.26879086      1.33201263     -1.48684682
 H     -1.35789442     -1.20791192     -1.52583082
 H     -1.63910008     -1.21525006      0.25474502
