18

C       1.05078529     -0.01803444     -1.67321462
C       0.09636424     -0.00272818     -0.50449888
C       0.85322453     -0.05011278      0.79590725
N      -0.04494570     -0.03401226      2.00027008
C      -1.16689745      0.79488378     -0.63272107
C      -1.21938371     -0.70576861     -0.65579643
H       0.49839816      0.01483515     -2.61260342
H       1.65968159     -0.92598369     -1.67809524
H       1.72022696      0.84599341     -1.65165770
H       1.51752832      0.81091462      0.89920691
H       1.45069508     -0.96135830      0.87319344
H      -0.61491301      0.81453515      2.01541130
H       0.49317017     -0.07036488      2.86740967
H      -0.68108016     -0.83426808      1.98744715
H      -1.60045006      1.30707318      0.22183999
H      -1.31827549      1.33478538     -1.55848143
H      -1.40737905     -1.20513917     -1.59746543
H      -1.68858471     -1.21247731      0.18311041
