18

 C      0.90315295      0.08895843      0.42020642
 C      2.24195274      0.07897906     -0.28596510
 C      3.24736490      1.13586902      0.20557129
 N      3.97939892      0.07465037      1.00369599
 C      5.45266730      0.06674508      1.01373577
 C      3.23592919     -0.98481795      0.21385963
 H      0.32689482      0.97235767      0.13984516
 H      1.00969918      0.09264219      1.50975452
 H      0.31738875     -0.79033923      0.14673378
 H      2.10782931      0.07547888     -1.36658968
 H      2.88388239      1.95392073      0.82594115
 H      3.91966464      1.51381963     -0.56344613
 H      3.64112816      0.08023109      1.96487637
 H      5.80890741      0.06080291     -0.01513501
 H      5.80259608     -0.82535715      1.53250788
 H      5.81221841      0.95904928      1.52553383
 H      3.90408144     -1.37599628     -0.55215178
 H      2.86367174     -1.79402815      0.84058937
