18

C       0.88776238      0.08885767      0.37319245
C       2.22656217      0.07887830     -0.33297907
C       3.23197432      1.13576826      0.15855732
N       3.96400834      0.07454962      0.95668202
C       5.43727672      0.06664433      0.96672180
C       3.22053862     -0.98491871      0.16684566
H       0.31150425      0.97225691      0.09283119
H       0.99430860      0.09254143      1.46274055
H       0.30199818     -0.79043999      0.09971981
H       2.09243874      0.07537812     -1.41360365
H       2.86849181      1.95381998      0.77892718
H       3.90427407      1.51371887     -0.61046010
H       3.62573758      0.08013034      1.91786240
H       5.79351684      0.06070216     -0.06214898
H       5.78720550     -0.82545790      1.48549391
H       5.79682783      0.95894853      1.47851986
H       3.88869087     -1.37609704     -0.59916575
H       2.84828117     -1.79412890      0.79357540
