16

 C      0.98573052      0.12949481     -0.24800548
 C      2.41694357      0.07686961      0.23426371
 N      2.66423302     -1.17380102      1.07347078
 C      3.63704968     -0.82211973      2.16980681
 C      3.50180804      0.66362807      2.23554377
 C      2.84936116      1.14572526      1.18997441
 H      0.73949652     -0.72475266     -0.88237400
 H      0.84420382      1.03000327     -0.84721075
 H      0.28449544      0.17590091      0.58958641
 H      3.10262189      0.01837880     -0.61890270
 H      2.98487796     -1.95717831      0.50536425
 H      1.77349580     -1.45002014      1.48953124
 H      4.63784708     -1.14376254      1.86839649
 H      3.36436656     -1.35393793      3.08211211
 H      3.93415689      1.23816373      3.04316507
 H      2.65414253      2.19045133      0.98842351
