18

 C      1.73995766     -0.00978891     -1.70848692
 C      0.22614799     -0.05721088     -1.58771067
 C     -0.27363661      0.44867641     -0.25977082
 C     -1.59714803      0.02077262      0.30561481
 C     -0.32921563     -0.47996703      0.90620801
 N      0.05419963      0.03342977      2.24520459
 H      2.06111442     -0.36873240     -2.68684970
 H      2.22474996     -0.63838845     -0.95575425
 H      2.11742062      1.00934078     -1.59349592
 H     -0.23471892      0.54704053     -2.37438569
 H     -0.13685495     -1.07923773     -1.74038965
 H      0.01276588      1.47357349     -0.02831498
 H     -2.18163153      0.75089574      0.85527810
 H     -2.19149009     -0.70001396     -0.24213647
 H     -0.03765464     -1.51708338      0.79625579
 H     -0.21323523      1.01511966      2.34647525
 H      1.06508673     -0.02549700      2.39295432
 H     -0.40748670     -0.48867569      2.99499476
