16

 C      1.90042680     -0.09742135     -0.92025110
 C      2.42361834     -0.20589362      0.29277947
 C      3.08057468      0.90840564      1.01506957
 C      3.03835131      2.36147314      0.52316044
 C      2.70462345      2.79233912      1.95332549
 N      2.34084343      1.36368909      2.29747313
 H      1.46887956     -0.95786842     -1.41659842
 H      1.90196883      0.83316206     -1.47689717
 H      2.43508257     -1.16949843      0.79706018
 H      4.08371584      0.63027610      1.34855729
 H      2.21428249      2.54756189     -0.16464890
 H      3.95987809      2.75072423      0.09905083
 H      1.88457219      3.48623095      2.12043186
 H      3.57078437      3.08374181      2.54432118
 H      2.67179038      0.99785687      3.18892743
 H      1.33934580      1.18519767      2.22127607
