16

C       1.91816200     -0.19219623     -0.96143143
C       2.44135354     -0.30066850      0.25159914
C       3.09830988      0.81363076      0.97388924
C       3.05608651      2.26669826      0.48198010
C       2.72235865      2.69756424      1.91214515
N       2.35857863      1.26891421      2.25629279
H       1.48661476     -1.05264330     -1.45777875
H       1.91970403      0.73838718     -1.51807750
H       2.45281777     -1.26427331      0.75587985
H       4.10145104      0.53550122      1.30737696
H       2.23201769      2.45278701     -0.20582924
H       3.97761329      2.65594935      0.05787049
H       1.90230739      3.39145607      2.07925152
H       3.58851957      2.98896693      2.50314084
H       2.68952558      0.90308199      3.14774710
H       1.35708100      1.09042280      2.18009574
