18

C       3.77808895      0.08192917     -1.06527517
C       2.65434230     -0.03999733     -0.05081908
C       3.03808303     -0.12917491      1.40721868
C       1.89963576     -0.14522575      2.38448143
C       4.32713542     -0.71020307      1.82279433
N       4.18395611      0.76529227      1.82707829
H       3.35242828      0.12895293     -2.06780803
H       4.45613930     -0.77355961     -1.05135541
H       4.36485857      0.99983971     -0.95099524
H       2.07147628     -0.94365175     -0.25495217
H       1.95611810      0.79574228     -0.15705209
H       1.31308762     -1.05155923      2.22252121
H       1.24195749      0.71209484      2.23224577
H       2.24154036     -0.15604051      3.42173961
H       5.02848046     -1.07271038      1.08308441
H       4.41924420     -1.14413046      2.81049688
H       4.12424328      1.24176409      2.71959720
H       4.67361049      1.28078273      1.10395338
