18

 C      2.91707017      1.19522922      0.40143178
 C      2.55608454     -0.21937240     -0.02367308
 C      3.03607485     -0.56411375     -1.40005271
 C      2.34132724     -1.53376162     -2.26452628
 N      2.21862049     -0.08808506     -2.55547673
 C      2.81848371      0.50590460     -3.75587799
 H      2.57062451      1.38385670      1.41751142
 H      2.45641794      1.94754387     -0.24444098
 H      3.99764545      1.35151587      0.38625780
 H      3.01018962     -0.94820093      0.65515603
 H      1.47482110     -0.38757806      0.03905828
 H      4.09434233     -0.41696093     -1.59408323
 H      2.89391259     -2.08378169     -3.01562266
 H      1.43018758     -1.99961266     -1.90916868
 H      1.32744121      0.32007545     -2.29011551
 H      3.76791474      0.01208458     -3.95567279
 H      2.98601325      1.56769892     -3.58110504
 H      2.14536354      0.36204146     -4.60030787
