14

C       0.59197162      0.09478953     -0.10678139
C       1.79009378      0.09630254     -0.12922355
C       3.23033958      0.09789148     -0.14365610
C       3.95524884      1.16266452      0.70978073
N       4.90437308      0.09416485      1.22133058
C       3.95751551     -0.97218692      0.70117301
H      -0.47515800      0.09347219     -0.09443765
H       3.60499730      0.10243144     -1.17116222
H       3.35377700      1.52915814      1.53886786
H       4.46625007      1.98058690      0.20779706
H       5.80009219      0.09707791      0.73473972
H       5.08897635      0.09032034      2.22350519
H       4.47024801     -1.78494838      0.19261538
H       3.35683034     -1.34663087      1.52727304
