18

 C      1.09249270     -0.23653186     -0.12488357
 C      2.60150624     -0.04462017     -0.05381591
 C      2.99498644      0.59966609      1.24039103
 N      4.35698505      1.21980401      1.30758332
 C      3.11779281      2.05870235      1.40202061
 C      2.87586177      2.76204256      2.69619654
 H      0.82154694     -0.70905301     -1.06884430
 H      0.56207189      0.71605267     -0.06516831
 H      0.73464472     -0.87963184      0.68162860
 H      2.94154006      0.57709102     -0.89003644
 H      3.10907624     -1.00978665     -0.13929969
 H      2.77993186      0.03836853      2.14550874
 H      4.90109824      1.24972525      0.45222441
 H      4.90907702      1.09641230      2.14912346
 H      2.98503104      2.64539465      0.49773502
 H      3.06389054      2.11202938      3.55377311
 H      1.82943518      3.07045238      2.73642588
 H      3.49282897      3.65784546      2.78116208
