18

C       1.20077477     -0.22801931     -0.11928627
C       2.70978831     -0.03610762     -0.04821861
C       3.10326851      0.60817864      1.24598833
N       4.46526712      1.22831656      1.31318062
C       3.22607488      2.06721490      1.40761791
C       2.98414385      2.77055511      2.70179384
H       0.92982901     -0.70054046     -1.06324699
H       0.67035396      0.72456522     -0.05957101
H       0.84292679     -0.87111929      0.68722591
H       3.04982213      0.58560357     -0.88443914
H       3.21735831     -1.00127410     -0.13370239
H       2.88821393      0.04688108      2.15110604
H       5.00938031      1.25823779      0.45782171
H       5.01735909      1.10492485      2.15472076
H       3.09331311      2.65390720      0.50333232
H       3.17217261      2.12054193      3.55937041
H       1.93771726      3.07896493      2.74202318
H       3.60111105      3.66635801      2.78675938
