18

 C      0.99826009      0.72233234      0.57192365
 C      2.31907876      0.10429472      0.14743010
 C      2.91715816      0.68622136     -1.10892938
 N      4.20842811     -0.00030852     -1.42227745
 C      2.14341540      1.11146467     -2.30994076
 C      2.88343847      2.12771544     -1.48694815
 H      0.64940634      0.23786941      1.48383113
 H      0.22282190      0.58796041     -0.18354948
 H      1.09610995      1.78722084      0.78765169
 H      3.04459247      0.21741013      0.96338210
 H      2.17705546     -0.97395150     -0.00142114
 H      4.63816756      0.37363074     -2.27044090
 H      4.06196400     -1.00405197     -1.56080628
 H      4.87645265      0.11445787     -0.65499949
 H      2.52829086      0.87688494     -3.29654940
 H      1.06485137      1.07506911     -2.24045348
 H      2.31486852      2.79167699     -0.85028818
 H      3.77016845      2.58231608     -1.91543418
