18

 C      1.08613612      0.34514106      0.34089425
 C      2.56390841      0.54221037      0.05038845
 C      3.26315674     -0.77936334     -0.26249246
 C      4.71458025     -0.56214367     -0.55537550
 C      5.74449461     -0.62465591      0.49234338
 N      5.62055387     -1.75394852     -0.46242012
 H      0.60699864      1.30022461      0.55811091
 H      0.93265238     -0.30668098      1.20423152
 H      0.56914179     -0.09884924     -0.51295147
 H      2.68749184      1.22429898     -0.79716217
 H      3.05207143      1.01888731      0.90685928
 H      3.15576832     -1.46472293      0.58733399
 H      2.78961103     -1.25488626     -1.12713084
 H      4.95224613      0.03806314     -1.42798494
 H      5.45025548     -0.87801957      1.50349126
 H      6.66405387     -0.06316993      0.39075894
 H      6.34700341     -1.87989344     -1.15834849
 H      5.21755205     -2.62073816     -0.12252943
