16

C       1.36327179     -0.58341693      0.87461638
C       2.20831814      0.34063129      0.44519407
C       3.10685712      0.16035843     -0.74274098
C       4.54520232      0.19742847     -0.30836717
C       5.27778552     -1.02046280      0.05855344
N       5.56076466     -0.37663039     -1.25054781
H       0.72166128     -0.40291722      1.72828539
H       1.26204312     -1.54504775      0.38099539
H       2.26559726      1.30127693      0.95091633
H       2.88856876     -0.79480743     -1.23232654
H       2.93849406      0.95943972     -1.47312106
H       4.89803422      1.12624034      0.12822520
H       6.10246355     -0.97386655      0.75793175
H       4.77791098     -1.97760146     -0.02621470
H       6.44805298      0.09878346     -1.37342064
H       5.21785689     -0.83390944     -2.08877371
