14

C       3.82466418      2.48195385     -1.65059418
C       3.81227692      1.55932035     -0.88587903
C       3.80163108      0.41449517      0.00755428
C       4.50378575     -0.76609914     -0.61023085
C       3.98730648     -2.13827409     -0.49766701
N       3.81325682     -1.39699364     -1.77096021
H       3.83283647      3.32221639     -2.30830456
H       2.77405536      0.14715084      0.28131659
H       4.31601951      0.64871501      0.94588574
H       5.56496496     -0.64483329     -0.79775040
H       4.66513984     -2.97952819     -0.56531396
H       3.06057789     -2.31458580      0.03432279
H       4.36581926     -1.67333279     -2.57535268
H       2.89031247     -1.04529401     -2.00819618
