16

C       0.97527131      0.05364113     -2.48391561
C       0.19048328     -0.14806430     -1.24424478
C       0.08132137      0.74027447     -0.25702904
C      -0.75467185      0.53301533      0.93392169
C      -1.05748638     -0.79132690      1.49342117
N      -0.05351446      0.04306011      2.19084835
H       1.71223093     -0.74626664     -2.60217794
H       1.48975478      1.01415997     -2.49680096
H       0.31794658     -0.00622588     -3.35660175
H      -0.34923712     -1.09120251     -1.16973169
H       0.56682523      1.70942945     -0.33051925
H      -1.44587462      1.32934008      1.19547751
H      -0.63766383     -1.67491109      1.03119678
H      -1.97139097     -0.94048870      2.05344718
H      -0.29532490      0.44826941      3.08840225
H       0.92193065     -0.21720259      2.08907942
