16

C       1.07844426     -0.08868504     -0.08383834
C       2.56664682      0.00375475     -0.18631956
C       3.28525139     -0.47408114     -1.19493293
C       3.19946185      0.72183437      0.95149642
C       3.50149303      0.03507786      2.22207628
N       4.60412711      0.37144643      1.28909979
H       0.66593527     -0.62148554     -0.93905428
H       0.62597976      0.90747263     -0.05496291
H       0.77001359     -0.60769881      0.82861136
H       2.80983225     -1.00176746     -2.01246981
H       4.35968360     -0.34264435     -1.27930955
H       3.02274324      1.79233431      1.01903082
H       3.31380369     -1.02875431      2.29714699
H       3.52124196      0.59185626      3.14998345
H       5.25326805      1.10804501      1.54278727
H       5.01530346     -0.39480096      0.76475368
