18

 C      1.68277505      0.02923239     -1.15874582
 C      0.17853550      0.11649906     -0.92361637
 C     -0.50635827     -1.23008780     -1.10952975
 C     -0.09465042      0.77523220      0.40552410
 C     -1.29333428      0.56042663      1.22936201
 N     -0.01741958     -0.07357948      1.63996583
 H      2.16562968      1.00436129     -1.06662555
 H      1.88529461     -0.34656908     -2.16204677
 H      2.15988680     -0.65646493     -0.45202500
 H     -0.24473654      0.81740894     -1.65374729
 H     -0.12368297     -1.99690157     -0.42556058
 H     -0.29843383     -1.60221345     -2.11322390
 H     -1.59234965     -1.17763588     -1.01204718
 H      0.41837347      1.71858882      0.56411637
 H     -2.04407839     -0.15175800      0.91393092
 H     -1.63166949      1.34195671      1.89724309
 H      0.46422567      0.27978176      2.45849137
 H      0.06457013     -1.07572912      1.50457033
