14

C       1.06198467      0.05947605      0.05446906
C       2.50433806      0.02831104      0.02691881
C       3.70758430     -0.00305556      0.00971186
C       5.12594552     -0.06684425      0.04318610
C       5.90654911     -0.71437704     -1.03266732
N       5.86136590      0.76290347     -0.99475961
H       0.69731953     -0.38934648      0.98161362
H       0.64360198     -0.49599618     -0.78729302
H       0.70030160      1.08934631      0.01007948
H       5.60844948      0.01202514      1.01315434
H       6.87926023     -1.13133828     -0.80626786
H       5.37406049     -1.14807088     -1.86868208
H       5.28088384      1.23876140     -1.67784041
H       6.69310629      1.27142193     -0.71417094
