18

 C      0.71968491      0.16152873     -1.46424668
 C      2.20219565      0.24740452     -1.44931893
 C      3.02928369     -0.78985289     -1.38325644
 C      4.52133540     -0.66611830     -1.35288551
 C      5.12584513     -1.26172735     -2.60936482
 N      6.63556323     -1.22748571     -2.54711760
 H      0.31365095      0.64030318     -2.35998819
 H      0.29734010      0.69747327     -0.60923941
 H      0.36977516     -0.87086923     -1.43210624
 H      2.62730056      1.25068502     -1.48092328
 H      2.62612332     -1.79960746     -1.33463111
 H      4.80319630      0.38861971     -1.26604366
 H      4.92306472     -1.18884189     -0.47388735
 H      4.84816999     -2.30814232     -2.74285838
 H      4.83748772     -0.70636559     -3.50215967
 H      6.97694248     -1.75224344     -1.73880992
 H      6.97310355     -0.26734838     -2.45076125
 H      7.06267723     -1.62729382     -3.38494100
