18

 C      0.65785955      0.23213923     -1.27275876
 C      2.13864495      0.19160221     -1.21242151
 C      2.97231376      1.12535680     -0.74044745
 C      2.57631443      2.44272081     -0.14603092
 C      4.43468537      0.82898359     -0.74725081
 N      5.15499594      1.72649037     -1.74612056
 H      0.32027098      0.07772829     -2.30192099
 H      0.22877254      1.16329298     -0.90785448
 H      0.23967323     -0.59320785     -0.68861035
 H      2.58465611     -0.73053419     -1.58388554
 H      1.49643863      2.55834722     -0.09197109
 H      2.94527678      3.30003728     -0.72354472
 H      2.97113191      2.54636606      0.86974285
 H      4.91390998      1.02943437      0.21424510
 H      4.65234964     -0.19415249     -1.05069192
 H      5.00714997      2.71024226     -1.51362821
 H      4.78020525      1.57348719     -2.68466196
 H      6.16193182      1.55359245     -1.76543336
