17
0431.log
C      1.291424    0.000331   -1.621201
C     -0.118286   -0.129089   -1.132642
C     -1.157639    0.098078   -1.930473
C     -0.301294   -0.538067    0.300091
C      0.199445    0.490907    1.307008
N      0.000764   -0.000313    2.661518
H      1.324877    0.239925   -2.684678
H      1.845045   -0.930455   -1.458574
H      1.832426    0.783688   -1.081469
H     -1.024676    0.388815   -2.967079
H     -2.177219   -0.003984   -1.574084
H      0.228950   -1.478451    0.491963
H     -1.363451   -0.727940    0.487746
H     -0.294990    1.453590    1.101940
H      1.272544    0.650927    1.167101
H     -0.988039   -0.108604    2.854491
H      0.360675    0.660348    3.338559
