18

C       1.21650376     -0.02956003     -1.83918186
C      -0.18497696     -0.13811068     -1.32675186
C      -1.25313262      0.13064629     -2.06825670
C      -0.35148082     -0.59964875      0.10072379
C       0.04359964      0.49291104      1.07523964
N      -0.08475475      0.00508437      2.49842769
H       1.73156216     -0.99366145     -1.77504928
H       1.81576419      0.68968256     -1.27060582
H       1.22814488      0.29021669     -2.88025969
H      -1.15521304      0.45872297     -3.09632896
H      -2.26206570      0.02045365     -1.68537486
H       0.27245615     -1.48652843      0.27398532
H      -1.39362365     -0.88581733      0.27345077
H      -0.60268002      1.36647231      0.98615577
H       1.07994858      0.80767466      0.95362136
H      -1.04492865     -0.28481929      2.69726806
H       0.17110313      0.72716200      3.17493626
H       0.51701573     -0.80533956      2.66090338
