20

 C      1.29598102      0.00642652     -1.50558333
 C     -0.15444237      0.22460644     -1.09476081
 C     -1.10489277     -0.47223710     -2.05825359
 C     -0.43268519     -0.25945211      0.33268536
 C      0.37688978      0.47905152      1.37305630
 N      0.00844053      0.00275274      2.75744406
 H      2.00484925      0.57766020     -0.90029018
 H      1.44523705      0.31828457     -2.54039574
 H      1.56658071     -1.05211853     -1.44220144
 H     -0.36757566      1.30094258     -1.12634453
 H     -0.93071509     -1.55216799     -2.06768709
 H     -0.95558737     -0.10564908     -3.07485956
 H     -2.15054887     -0.29994569     -1.79268078
 H     -1.50100854     -0.12988078      0.54612896
 H     -0.21846938     -1.33465457      0.39113880
 H      1.44897351      0.31177656      1.27077633
 H      0.18665878      1.55357351      1.35812427
 H      0.18646677     -0.99941318      2.85346703
 H     -0.98637242      0.15271720      2.93902937
 H      0.53810998      0.48741115      3.48464943
