20

C       1.28140170      0.04280033     -1.52332414
C      -0.16902169      0.26098024     -1.11250162
C      -1.11947209     -0.43586330     -2.07599440
C      -0.44726451     -0.22307831      0.31494455
C       0.36231046      0.51542532      1.35531549
N      -0.00613879      0.03912654      2.73970325
H       1.99026993      0.61403401     -0.91803099
H       1.43065773      0.35465838     -2.55813655
H       1.55200139     -1.01574472     -1.45994225
H      -0.38215498      1.33731638     -1.14408534
H      -0.94529441     -1.51579419     -2.08542790
H      -0.97016669     -0.06927528     -3.09260037
H      -2.16512819     -0.26357189     -1.81042159
H      -1.51558786     -0.09350698      0.52838815
H      -0.23304870     -1.29828077      0.37339799
H       1.43439419      0.34815037      1.25303552
H       0.17207946      1.58994731      1.34038346
H       0.17188745     -0.96303938      2.83572622
H      -1.00095174      0.18909100      2.92128856
H       0.52353066      0.52378495      3.46690862
