18

C       0.99589891     -0.21499008     -0.17932709
C       2.48103412     -0.07102240     -0.18366562
C       2.99312509      1.10518324     -0.94686520
C       3.24368025     -0.97577309      0.44786177
C       4.72364473     -0.98710215      0.48912059
N       5.21404599     -0.55699919      1.87111182
H       0.52719450      0.68046928      0.23918381
H       0.66294976     -1.08355830      0.38774474
H       0.62504863     -0.30567063     -1.20478173
H       2.54190158      2.02398111     -0.56142832
H       2.68046165      1.02964554     -1.99240437
H       4.07591891      1.22750770     -0.93202260
H       2.75257142     -1.81129027      0.94088553
H       5.19039512     -0.30300452     -0.21664061
H       5.13987218     -1.98464010      0.33716836
H       4.89065424      0.39036409      2.07557588
H       6.23327716     -0.57977773      1.94956844
H       4.82468575     -1.16891352      2.59090858
