19
0439.log
C      1.875807   -0.000643   -0.704301
C      0.357500   -0.069358   -0.781378
C     -0.106350   -1.517639   -0.881517
C     -0.285451    0.684919    0.394427
C     -1.769096    0.958386    0.170854
N      0.000721    0.001666    1.652558
H      2.337473   -0.535543   -1.538467
H      2.226739   -0.446862    0.228798
H      2.227839    1.034287   -0.734261
H      0.036165    0.450355   -1.693170
H      0.238826   -2.098133   -0.021234
H      0.308963   -1.989649   -1.775183
H     -1.193949   -1.606283   -0.942798
H      0.225221    1.654015    0.452847
H     -2.343442    0.028248    0.129360
H     -1.942602    1.501420   -0.762860
H     -2.175969    1.559353    0.988647
H     -0.579955   -0.824532    1.741967
H     -0.230513    0.599754    2.435995
