16

 C      1.38375743      0.38812002      0.13286782
 C      2.75882481      0.08490270     -0.19308884
 C      3.89879556     -0.17337771     -0.47893453
 C      5.25893585     -0.51003909     -0.83385635
 C      5.59109143     -1.98698678     -0.73677192
 N      6.18384191      0.26296984      0.11018882
 H      1.32665610      1.26226160      0.78528996
 H      0.91213048     -0.45467311      0.64226760
 H      0.81845425      0.60451822     -0.77642042
 H      5.50548093     -0.12766987     -1.82943412
 H      5.38885379     -2.37228071      0.26476052
 H      6.63203785     -2.18288851     -1.00541563
 H      4.95651886     -2.53141446     -1.43532512
 H      6.01104980     -0.03083636      1.07441112
 H      5.99338229      1.26541501      0.05382637
 H      7.16894813      0.09898845     -0.10814404
