18

 C      2.39718819     -1.25631920      0.84554957
 C      3.05552582     -0.25535081     -0.10068839
 C      3.21836591      1.08417973      0.51899931
 C      4.36728410      1.74798603      0.64164907
 C      4.44594082      3.10253263      1.23932638
 N      5.15100416      3.04402861      2.59041605
 H      2.25268642     -2.21287979      0.34237082
 H      1.41770090     -0.90538763      1.17856122
 H      3.01440416     -1.43221406      1.72912080
 H      4.02196805     -0.62859806     -0.44875523
 H      2.42289383     -0.13796242     -0.98879890
 H      2.30409807      1.55137669      0.88896177
 H      5.28975430      1.32195447      0.25216015
 H      3.46104949      3.52770077      1.43201904
 H      5.02750631      3.80644318      0.64061790
 H      4.64427896      2.41759240      3.21943946
 H      5.22166832      3.96365898      3.03164399
 H      6.09591409      2.66898741      2.48651129
