20

C       1.48443884     -0.16619834      0.41539613
C       2.89939548      0.38616120      0.37879862
C       3.22055045      1.19033580     -0.88589746
C       2.39801350      2.46860296     -0.99166815
C       4.71056292      1.47981366     -0.88187398
N       5.13309204      2.22336764     -2.12427949
H       1.34573799     -0.78557889      1.30225729
H       1.27813625     -0.79018280     -0.45780396
H       0.73231080      0.62329643      0.45405703
H       3.07413154      1.02090868      1.25548364
H       3.60770478     -0.44608443      0.45563037
H       3.00043490      0.54850222     -1.75131655
H       2.61944886      3.15130859     -0.16550875
H       1.33292632      2.24317226     -0.95245459
H       2.54332914      3.00642612     -1.93587859
H       4.99546432      2.11166444     -0.03808153
H       5.30578898      0.56632645     -0.85361350
H       4.61587715      3.10170064     -2.20417092
H       4.93251217      1.67369738     -2.96239612
H       6.13121690      2.43974332     -2.12004949
