20

C       1.13666624      0.22554261      0.03794986
C       2.65102298      0.13182718     -0.05851043
C       3.17581642     -1.22237028      0.40362766
C       4.68598534     -1.33074680      0.49769474
C       5.19085587     -2.67697199      0.96146496
N       5.27974677     -1.04296822     -0.87199256
H       0.78296429      1.19778259     -0.30630407
H       0.80329168      0.09510749      1.06966939
H       0.65208595     -0.54115602     -0.57096536
H       3.10667911      0.92504308      0.54584147
H       2.93596650      0.32795494     -1.10256338
H       2.78928181     -2.02564912     -0.23691981
H       2.79132842     -1.43425129      1.40563411
H       5.07882440     -0.53191383      1.13315719
H       4.83398704     -3.48381282      0.31530871
H       4.81406428     -2.87159316      1.96595595
H       6.28180544     -2.71680225      1.01046763
H       4.98974437     -1.75897692     -1.54207701
H       6.30052984     -1.03562682     -0.84495134
H       4.95578992     -0.13880837     -1.22215770
