20

C       0.93639524     -0.17174698      0.10392799
C       2.45405443     -0.12354741      0.09358695
C       2.98518922      1.19170936     -0.46695587
C       4.49660038      1.22240719     -0.46983235
N       5.01508983      2.51920170     -1.02254216
C       6.49777278      2.63166614     -1.06068677
H       0.58285574     -1.12064630      0.50853660
H       0.52786509     -0.06945322     -0.90436218
H       0.51680534      0.62727997      0.71997197
H       2.83673306     -0.26250285      1.11028950
H       2.84771073     -0.95406502     -0.50198913
H       2.60793508      1.32878428     -1.48795302
H       2.59689832      2.02406921      0.13300470
H       4.91036556      1.12855900      0.53607434
H       4.92143915      0.43095385     -1.09029265
H       4.63762790      2.64344126     -1.96423156
H       4.62743996      3.28525305     -0.46793886
H       6.89132219      1.83176204     -1.68461121
H       6.88016952      2.53434901     -0.04662981
H       6.77422380      3.59999239     -1.47415315
