20

C       2.14161112      0.04170795     -1.02485314
C       0.73670833      0.59059721     -1.22188139
C      -0.34602349     -0.11443981     -0.41928609
C      -1.73244040      0.43054289     -0.67513458
N      -0.00574105      0.00846437      1.05391686
C      -0.76478598     -0.86794507      1.98315056
H       2.83286430      0.51863460     -1.72011407
H       2.18448007     -1.03468937     -1.21008051
H       2.55328764      0.23654006     -0.02732687
H       0.70500651      1.66633936     -1.01079186
H       0.45191184      0.48912882     -2.27192913
H      -0.31068936     -1.19011910     -0.61751167
H      -1.79684119      1.49265949     -0.42080077
H      -2.51096661     -0.11188400     -0.13768842
H      -1.95495825      0.33827412     -1.73860505
H       0.99355256     -0.18548066      1.15013955
H      -0.13025959      0.98597789      1.32685364
H      -0.62141331     -1.90300152      1.67906226
H      -1.81918117     -0.60904770      1.94271799
H      -0.38800531     -0.72168953      2.99408935
