18

 C      1.19392228     -0.00107636     -2.57555150
 C      0.89280265     -0.53860447     -1.18488229
 C      0.25637421      0.52662436     -0.31796586
 N     -0.03403823      0.01661588      1.04273787
 C     -1.04164579      0.64973999      1.91686749
 C     -1.29628911     -0.68494342      1.35173428
 H      1.65553132     -0.77537921     -3.18792223
 H      1.88272689      0.84554384     -2.53626318
 H      0.28362101      0.32453870     -3.08376558
 H      1.81965518     -0.88572019     -0.71451520
 H      0.22534306     -1.40367223     -1.25358619
 H     -0.69406309      0.87235135     -0.73139786
 H      0.90860710      1.39466084     -0.19574199
 H      0.78421623     -0.34816379      1.52135265
 H     -1.52097537      1.51275304      1.47311096
 H     -0.75055297      0.74534002      2.95488555
 H     -1.19239323     -1.56054932      1.97920680
 H     -1.95924555     -0.78189106      0.50164019
