17
0470.log
C      1.160415   -0.000479   -2.549672
C      0.871874   -0.529547   -1.155248
C      0.225284    0.512212   -0.262717
N     -0.000308   -0.000331    1.073495
C     -1.025147    0.667384    1.844491
C     -1.260992   -0.680883    1.282591
H      1.626066   -0.764250   -3.175947
H      1.838280    0.857132   -2.515229
H      0.244099    0.324250   -3.050861
H      1.795742   -0.870008   -0.678214
H      0.215452   -1.404592   -1.216042
H     -0.716314    0.863167   -0.724374
H      0.882144    1.385492   -0.179337
H     -1.550773    1.496153    1.374948
H     -0.818553    0.794639    2.901668
H     -1.943007   -0.750337    0.437512
H     -1.231226   -1.556771    1.921440
