15
0471.log
C      1.014291   -0.000500   -2.377354
C      1.178251    0.279371   -1.092806
C      0.104973    0.801692   -0.196886
N      0.000098   -0.000115    1.009329
C     -1.270442    0.063005    1.698019
C     -0.885619   -1.141682    0.928830
H      1.832237   -0.363014   -2.989171
H      0.053867    0.129485   -2.867258
H      2.147309    0.131256   -0.622205
H     -0.849535    0.851143   -0.748466
H      0.353374    1.823703    0.114793
H     -2.046048    0.695056    1.271191
H     -1.224071    0.063064    2.781675
H     -1.399617   -1.314346   -0.013849
H     -0.553646   -2.038033    1.440996
