16

 C      0.96120799     -0.07079425     -2.34789940
 C      1.22226270      0.32542300     -1.11097071
 C      0.18188007      0.88997708     -0.20762635
 N     -0.02305199      0.01911287      0.98533142
 C     -1.30007117      0.00238992      1.72733124
 C     -0.90067560     -1.16433763      0.92296579
 H      1.74444016     -0.44779145     -2.99413093
 H     -0.03665596     -0.01210806     -2.77171410
 H      2.23856798      0.28583358     -0.72620929
 H      0.45573213      1.87456277      0.18115922
 H     -0.78492652      0.97049637     -0.70714545
 H      0.81032557     -0.09543250      1.55419720
 H     -1.20258140     -0.02998118      2.80485202
 H     -2.03989418      0.68849706      1.33554761
 H     -1.34951388     -1.31895305     -0.04968824
 H     -0.51497079     -2.04755762      1.41525379
