18

 C      1.97764552      0.03372420     -0.60028781
 C      0.58906369      0.61172527     -0.42077931
 C     -0.28471695      0.43819703     -1.64185336
 N     -0.00778735     -0.01707087      0.81137189
 C     -1.41338832      0.12709587      1.23292908
 C     -0.90729861     -1.18953749      0.81460751
 H      2.60643840      0.19342622      0.27930457
 H      2.46623908      0.52784474     -1.44060865
 H      1.93785148     -1.03590714     -0.81931975
 H      0.65392946      1.67291132     -0.16322166
 H     -0.30824501     -0.59696188     -1.98796144
 H      0.14832857      1.03386097     -2.44637218
 H     -1.30511295      0.79935281     -1.50300019
 H      0.65273390     -0.00984579      1.58250501
 H     -1.54990504      0.34276534      2.28467498
 H     -2.02843561      0.69409687      0.54781543
 H     -1.16248087     -1.55684720     -0.16936999
 H     -0.67307721     -1.93862406      1.55969527
