17
0473.log
C      1.931801   -0.000160   -0.592478
C      0.545935    0.584603   -0.377917
C     -0.294029    0.456385   -1.644511
N      0.000213    0.000771    0.846542
C     -1.396781    0.140357    1.171098
C     -0.833621   -1.177822    0.793254
H      2.428515    0.470900   -1.444010
H      1.865605   -1.073739   -0.792697
H      2.547731    0.140816    0.296794
H      0.654416    1.652704   -0.154071
H     -0.342603   -0.577519   -1.996185
H      0.162816    1.047213   -2.441488
H     -1.313908    0.825023   -1.514419
H     -2.063659    0.610540    0.453148
H     -1.615318    0.370015    2.209194
H     -1.129244   -1.571743   -0.175059
H     -0.635184   -1.930433    1.549395
