18

C       1.89257729      0.02717952     -0.45207478
C       0.50399546      0.60518059     -0.27256628
C      -0.36978518      0.43165235     -1.49364033
N      -0.09285558     -0.02361555      0.95958493
C      -1.49845655      0.12055119      1.38114212
C      -0.99236684     -1.19608217      0.96282055
H       2.52137017      0.18688154      0.42751760
H       2.38117085      0.52130006     -1.29239562
H       1.85278325     -1.04245182     -0.67110671
H       0.56886122      1.66636664     -0.01500863
H      -0.39331324     -0.60350656     -1.83974840
H       0.06326033      1.02731629     -2.29815915
H      -1.39018118      0.79280813     -1.35478716
H       0.56766567     -0.01639046      1.73071804
H      -1.63497327      0.33622066      2.43288802
H      -2.11350384      0.68755219      0.69602846
H      -1.24754910     -1.56339188     -0.02115695
H      -0.75814544     -1.94516874      1.70790831
