20

 C      0.96815181      0.12390727      0.26666551
 C      2.48401069      0.07921184      0.15250234
 C      2.91381361     -0.57226248     -1.14405417
 N      4.40654142     -0.62063534     -1.26510262
 C      4.92788436     -1.25105249     -2.52153968
 C      6.43621912     -1.25111380     -2.54724437
 H      0.67333913      0.59505822      1.20407278
 H      0.53710838     -0.87937533      0.24991723
 H      0.52357556      0.69959410     -0.54794577
 H      2.88820629      1.09658053      0.20513250
 H      2.90168702     -0.47631097      0.99992430
 H      2.56176362     -1.60295757     -1.21699911
 H      2.54823500     -0.02447723     -2.01461497
 H      4.77527811      0.33038836     -1.19290993
 H      4.78772214     -1.12154458     -0.45923924
 H      4.51575645     -2.26048730     -2.55288828
 H      4.50223829     -0.68321138     -3.34989443
 H      6.85896657     -1.82570620     -1.71964874
 H      6.84536166     -0.23832587     -2.52176183
 H      6.77643259     -1.71606188     -3.47314625
