20

C       0.96597405      0.12185554      0.26264208
C       2.48183293      0.07716011      0.14847891
C       2.91163585     -0.57431421     -1.14807760
N       4.40436366     -0.62268707     -1.26912605
C       4.92570660     -1.25310422     -2.52556311
C       6.43404136     -1.25316552     -2.55126780
H       0.67116137      0.59300649      1.20004935
H       0.53493063     -0.88142706      0.24589381
H       0.52139780      0.69754236     -0.55196920
H       2.88602853      1.09452881      0.20110906
H       2.89950927     -0.47836269      0.99590087
H       2.55958587     -1.60500930     -1.22102253
H       2.54605724     -0.02652897     -2.01863840
H       4.77310035      0.32833664     -1.19693337
H       4.78554439     -1.12359630     -0.46326267
H       4.51357870     -2.26253903     -2.55691170
H       4.50006053     -0.68526312     -3.35391786
H       6.85678882     -1.82775792     -1.72367217
H       6.84318390     -0.24037759     -2.52578527
H       6.77425483     -1.71811361     -3.47716968
