18

 C      0.90414942     -0.14452781      0.11329303
 C      2.40700427      0.00058009     -0.06717543
 C      2.88198441      1.41148373      0.21408985
 N      3.05895576     -0.89546506      1.00463834
 C      2.85246673     -0.57224153     -1.38447777
 C      3.60639340      0.04690060     -2.27990600
 H      0.39980775      0.47650802     -0.62720557
 H      0.58028709      0.18810302      1.10313903
 H      0.57286581     -1.17430442     -0.04410495
 H      2.44233987      2.09187405     -0.51500820
 H      3.96825067      1.50582800      0.14882181
 H      2.55918484      1.74404552      1.20386348
 H      2.78015894     -1.87069805      0.88128616
 H      2.78557795     -0.60323913      1.94522052
 H      4.07714624     -0.84888013      0.93204613
 H      2.47101103     -1.56863514     -1.60522116
 H      3.98999952      1.05036380     -2.13472339
 H      3.85432559     -0.43451769     -3.21808638
