16

 C      0.94507166      0.05074388      0.09989823
 C      2.46507740     -0.01083033      0.04710069
 C      3.01536155      0.28674981     -1.34056996
 N      2.99361962      1.08675192      0.98656715
 C      2.98105712     -1.26141110      0.58378946
 C      3.40512164     -2.29205219      1.02440943
 H      0.54152874     -0.73097303     -0.54293568
 H      0.57841142      1.01239615     -0.26820785
 H      0.56848919     -0.12537283      1.10937818
 H      2.67244812     -0.48805554     -2.02558872
 H      4.10699310      0.27800530     -1.35264467
 H      2.64992232      1.24854128     -1.70952561
 H      2.67714605      2.01038115      0.68304773
 H      4.01581748      1.08009088      1.00154940
 H      2.66519254      0.92612486      1.94128743
 H      3.77831823     -3.21574465      1.40944272
