19
0477.log
C      1.725921    0.000442   -0.951830
C      0.355392    0.503708   -0.525647
C     -0.684726    0.240813   -1.615505
N      0.000495   -0.000208    0.800142
C     -1.060212    0.745584    1.429197
C     -0.242880   -1.420668    0.875957
H      2.057589    0.524084   -1.851495
H      1.712485   -1.067054   -1.186969
H      2.457800    0.169181   -0.159860
H      0.435549    1.590054   -0.399086
H     -0.762693   -0.825928   -1.842083
H     -0.403265    0.752086   -2.539263
H     -1.675571    0.600327   -1.328224
H     -0.828162    1.813318    1.409237
H     -1.149425    0.440980    2.475641
H     -2.051038    0.603253    0.961322
H      0.586712   -1.978300    0.438820
H     -1.173539   -1.741388    0.375659
H     -0.318937   -1.715734    1.925879
