18

 C      1.04301320      0.13085813      0.26863898
 C      2.48647459     -0.09131605     -0.17879725
 C      2.82534413     -1.56849329     -0.32524981
 N      2.57709543     -2.32345010      0.95830158
 C      2.75404036      0.56317168     -1.50504408
 C      3.71751228      1.44533765     -1.71957343
 H      0.82512217      1.19853951      0.29573977
 H      0.83716984     -0.24431941      1.27794329
 H      0.33498319     -0.33015327     -0.42638399
 H      3.17037194      0.34862965      0.55819665
 H      3.87511737     -1.71877693     -0.57763062
 H      2.20660502     -2.04926701     -1.08555245
 H      3.15512438     -1.95335950      1.71580301
 H      2.78615892     -3.31854658      0.86054704
 H      1.60007633     -2.22910018      1.24456187
 H      2.08396105      0.28301772     -2.31616143
 H      4.39454590      1.75980066     -0.93126332
 H      3.85845483      1.89765720     -2.69362034
