18

C       1.13630593      0.27908558      0.10610412
C       2.57976732      0.05691140     -0.34133211
C       2.91863686     -1.42026584     -0.48778467
N       2.67038816     -2.17522265      0.79576672
C       2.84733308      0.71139913     -1.66757894
C       3.81080500      1.59356510     -1.88210829
H       0.91841489      1.34676696      0.13320491
H       0.93046257     -0.09609196      1.11540843
H       0.42827592     -0.18192582     -0.58891885
H       3.26366467      0.49685710      0.39566179
H       3.96841010     -1.57054948     -0.74016548
H       2.29989775     -1.90103956     -1.24808731
H       3.24841711     -1.80513205      1.55326815
H       2.87945165     -3.17031913      0.69801218
H       1.69336906     -2.08087273      1.08202701
H       2.17725377      0.43124517     -2.47869629
H       4.48783862      1.90802811     -1.09379818
H       3.95174755      2.04588465     -2.85615520
