17
0481.log
C      2.358445   -0.000379   -0.256646
C      0.908250    0.246300   -0.636523
C     -0.091222   -0.415359    0.310219
N     -0.000065    0.000257    1.707007
C     -1.524856   -0.260197   -0.108586
C     -1.980942    0.358145   -1.188913
H      3.037315    0.447289   -0.985504
H      2.580617   -1.070941   -0.213795
H      2.603643    0.430929    0.717546
H      0.734807   -0.130175   -1.650257
H      0.709216    1.324154   -0.666347
H      0.118504   -1.495979    0.307568
H     -0.162306    0.998244    1.784380
H      0.920831   -0.188394    2.081651
H     -2.230347   -0.701396    0.591729
H     -1.324414    0.826352   -1.913779
H     -3.044543    0.414447   -1.390199
