18

 C      2.35991938      0.01567012     -0.19242744
 C      0.91851142      0.22221039     -0.63421800
 C     -0.10456590     -0.46660488      0.24711789
 N      0.04214926      0.06638257      1.67156435
 C     -1.54613250     -0.32048529     -0.12958150
 C     -2.00027166      0.41159409     -1.13589732
 H      3.04267017      0.42545582     -0.93683945
 H      2.60120039     -1.04454944     -0.08016862
 H      2.60434018      0.52873103      0.74466864
 H      0.68788961      1.29061509     -0.70772722
 H      0.78299059     -0.18824852     -1.63769976
 H      0.14631531     -1.52917643      0.33930267
 H     -0.19682118      1.06044967      1.69500797
 H      1.00273876     -0.04234681      2.00442459
 H     -0.58285621     -0.41800715      2.31777997
 H     -2.24832456     -0.89940643      0.46817813
 H     -1.35008402      0.98379946     -1.78757499
 H     -3.06001020      0.44662597     -1.35690662
