18

C       2.13265111     -0.02635256     -0.27072351
C       0.69124315      0.18018771     -0.71251407
C      -0.33183417     -0.50862756      0.16882182
N      -0.18511901      0.02435989      1.59326828
C      -1.77340077     -0.36250797     -0.20787757
C      -2.22753993      0.36957141     -1.21419339
H       2.81540190      0.38343314     -1.01513552
H       2.37393212     -1.08657212     -0.15846469
H       2.37707191      0.48670835      0.66637257
H       0.46062134      1.24859241     -0.78602329
H       0.55572232     -0.23027120     -1.71599583
H      -0.08095296     -1.57119911      0.26100659
H      -0.42408945      1.01842699      1.61671190
H       0.77547049     -0.08436949      1.92612852
H      -0.81012448     -0.46002983      2.23948390
H      -2.47559283     -0.94142911      0.38988206
H      -1.57735229      0.94177678     -1.86587106
H      -3.28727847      0.40460329     -1.43520269
