19
0483.log
C      0.715590   -0.000541   -2.697929
C      0.528506    0.584038   -1.307745
C      0.048872   -0.460922   -0.315218
N      0.000023    0.000307    1.058131
C     -0.997861    1.022309    1.270572
C     -0.198880   -1.102678    1.967855
H      1.049191    0.759699   -3.407252
H     -0.218179   -0.422289   -3.080542
H      1.461189   -0.800651   -2.694686
H     -0.183760    1.412859   -1.360436
H      1.470827    1.003359   -0.941301
H      0.739833   -1.310563   -0.348378
H     -0.937245   -0.850704   -0.641647
H     -0.789234    1.901038    0.659404
H     -0.982720    1.335865    2.316710
H     -2.021712    0.674249    1.034742
H      0.597829   -1.839472    1.841398
H     -1.166512   -1.617264    1.816958
H     -0.168164   -0.743871    2.999390
