18

 C      1.28427583     -0.19806751      0.06939798
 C      2.76832705      0.06974734      0.00514909
 N      3.23298451      0.80733675      1.20141616
 C      4.48842212      1.58632993      1.19639754
 C      3.19844348      2.29464274      1.28710430
 C      2.71367403      2.91230474      2.55739893
 H      0.98303392     -0.74678233     -0.82358479
 H      0.70620529      0.72719428      0.10373314
 H      1.02119489     -0.81176292      0.93379140
 H      3.03678264      0.67906884     -0.85975122
 H      3.35014140     -0.85349429     -0.04027128
 H      3.02658872      0.33656019      2.07783796
 H      5.01971738      1.55010359      0.25388506
 H      5.09375635      1.47455086      2.08755671
 H      2.82399964      2.72350226      0.36317013
 H      3.10706051      2.39657466      3.43658698
 H      1.62372822      2.91970527      2.60328460
 H      3.05812852      3.94745516      2.59971177
