18

C       1.94753712      0.03987766      0.12986958
C       0.57826342     -0.59218472      0.25070433
N      -0.06730855     -0.08778218      1.52384656
C      -0.31617540     -0.31672267     -0.92876929
C      -1.81232630     -0.32846873     -0.88564927
C      -1.07942380      0.95891001     -1.11505235
H       2.58702897     -0.19103500      0.98558182
H       1.87570202      1.12437958      0.01425632
H       2.44141771     -0.35232935     -0.75951063
H       0.66680560     -1.67220140      0.40096363
H      -0.18151436      0.92779403      1.48666138
H       0.51046635     -0.30770449      2.33644881
H      -0.98995051     -0.50514199      1.66063128
H       0.12156781     -0.73207688     -1.83024029
H      -2.33282082     -0.78810179     -1.71516371
H      -2.33959470     -0.45002849      0.05614865
H      -1.10528379      1.70188909     -0.32317655
H      -1.09207276      1.39994831     -2.10261428
