17
0506.log
C      2.071998   -0.000590    0.225708
C      0.646043   -0.508404    0.414307
N      0.000017    0.001055    1.617777
C     -0.190304   -0.216067   -0.814792
C     -1.677735   -0.343590   -0.793660
C     -1.045913    1.010603   -0.921028
H      2.691702   -0.245245    1.092568
H      2.074521    1.086901    0.100874
H      2.541652   -0.438605   -0.659750
H      0.681828   -1.599451    0.525644
H      0.156394    0.999211    1.702162
H      0.408334   -0.425112    2.439599
H      0.295079   -0.520240   -1.737420
H     -2.128087   -0.575627    0.163344
H     -2.170969   -0.768401   -1.659247
H     -1.120882    1.663993   -0.060509
H     -1.092696    1.519976   -1.875573
