18

 C      0.91187201      0.12906073     -0.02639541
 C      2.40298070     -0.15282709     -0.04049000
 N      2.72836095     -1.03423126      1.14120975
 C      2.90935752     -0.78038792     -1.31269832
 C      2.88126159      0.13205177     -2.49753938
 C      3.34435724     -2.03423224     -1.38424164
 H      0.66682327      0.82832052     -0.82446428
 H      0.59544894      0.58900033      0.91304483
 H      0.33688099     -0.78471796     -0.19663005
 H      2.95786087      0.77298105      0.14429386
 H      2.20563040     -1.91137977      1.08500951
 H      2.48129704     -0.57620017      2.01957429
 H      3.72447457     -1.26586147      1.15577314
 H      3.35485334     -0.33986629     -3.35677306
 H      3.40536579      1.06969848     -2.28932884
 H      1.85742937      0.39027947     -2.78175242
 H      3.70022563     -2.43940362     -2.32330901
 H      3.37114770     -2.73269284     -0.55330353
