18

C       1.56117365     -0.02497964      0.25900571
C       0.16332365     -0.44360337      0.64605419
N      -0.07763297     -0.03246559      2.09004196
C      -0.94118801      0.16633231     -0.20852924
C      -0.91281971     -0.36347119     -1.60837111
C      -0.72423853      0.38740784     -2.68225742
H       1.74198556     -0.32225361     -0.77400463
H       2.32304280     -0.50038825      0.88113099
H       1.68168186      1.06111020      0.31148550
H       0.07411467     -1.53344278      0.65243072
H      -0.02189674      0.98454658      2.18294625
H       0.62087349     -0.43895170      2.71526600
H      -1.00330644     -0.32335367      2.41087992
H      -1.91625268     -0.06624293      0.24170689
H      -0.83640893      1.25714446     -0.22236031
H      -1.08152927     -1.43243706     -1.71999090
H      -0.56987739      1.45974967     -2.61343266
H      -0.73266001     -0.04266727     -3.67629786
