20

 C      1.58989103     -0.90442826     -0.47835213
 C      2.86596136     -1.45498105      0.11082435
 N      3.15775853     -0.94135529      1.49465740
 C      2.12815824     -1.36007213      2.48017062
 C      4.54824930     -1.32329246      1.92432045
 C      4.99536253     -0.63784982      3.19272532
 H      1.52877301     -1.22553656     -1.51921660
 H      1.57935003      0.18874869     -0.47859580
 H      0.69377523     -1.27002890      0.02262137
 H      3.72603513     -1.17386345     -0.49872220
 H      2.84827932     -2.54364393      0.18787788
 H      3.13289608      0.07950648      1.44359028
 H      2.14056196     -2.44721073      2.54760781
 H      1.15123196     -1.01734732      2.15001134
 H      2.35592578     -0.92304455      3.44866389
 H      5.20078510     -1.05842179      1.09104876
 H      4.54886700     -2.41052285      2.02110100
 H      4.91585219      0.44992824      3.11813313
 H      6.04881013     -0.87171052      3.35335577
 H      4.45409289     -0.97567330      4.07622081
