20

C       1.62359036     -0.91705145     -0.50869664
C       2.89966069     -1.46760424      0.08047984
N       3.19145786     -0.95397848      1.46431289
C       2.16185756     -1.37269532      2.44982611
C       4.58194863     -1.33591566      1.89397595
C       5.02906186     -0.65047301      3.16238082
H       1.56247234     -1.23815975     -1.54956111
H       1.61304936      0.17612550     -0.50894031
H       0.72747456     -1.28265209     -0.00772314
H       3.75973446     -1.18648665     -0.52906670
H       2.88197865     -2.55626712      0.15753338
H       3.16659541      0.06688329      1.41324577
H       2.17426128     -2.45983392      2.51726331
H       1.18493129     -1.02997051      2.11966683
H       2.38962510     -0.93566774      3.41831938
H       5.23448443     -1.07104499      1.06070426
H       4.58256632     -2.42314605      1.99075650
H       4.94955152      0.43730505      3.08778863
H       6.08250945     -0.88433372      3.32301127
H       4.48779221     -0.98829649      4.04587631
