20

 C      1.18657458     -0.53528286     -0.49594474
 C      2.68014876     -0.44398045     -0.29492254
 N      3.29390447      0.50625809     -1.27700907
 C      4.77832386      0.78052373     -1.13717618
 C      5.57036785     -0.46881429     -1.45314438
 C      5.12448447      1.94948177     -2.03544211
 H      0.77062736     -1.23164094      0.23293881
 H      0.93079308     -0.91158552     -1.48938492
 H      0.69454688      0.42866399     -0.34486185
 H      2.93770520     -0.06982705      0.69716037
 H      3.16674799     -1.40792697     -0.43605615
 H      3.11741505      0.16441870     -2.22515264
 H      2.79965861      1.39889285     -1.21135386
 H      4.90826194      1.05994981     -0.08813484
 H      5.39388620     -0.80312056     -2.47994200
 H      5.36116809     -1.29147992     -0.76918507
 H      6.63285310     -0.24022218     -1.36552123
 H      4.97861410      1.70185200     -3.09049088
 H      6.17559273      2.20654760     -1.90269689
 H      4.53964922      2.84172339     -1.79663221
