18

 C      1.00407210      0.30600153      0.05960394
 C      2.51114089      0.25713972      0.10994505
 N      3.03937331     -0.93167901     -0.63437472
 C      4.54084205     -1.06664674     -0.64859182
 C      4.95187623     -2.27728446     -1.41204803
 C      5.59870240     -2.21248205     -2.56701642
 H      0.65786256      1.18215424      0.60899879
 H      0.55131211     -0.57178507      0.52671014
 H      0.63258246      0.39469778     -0.96396467
 H      2.96662698      1.13520871     -0.34983652
 H      2.88656967      0.17348604      1.13077164
 H      2.63384228     -1.78205450     -0.23690205
 H      2.71191719     -0.90205311     -1.60294691
 H      4.93178676     -0.15224345     -1.09580345
 H      4.85060970     -1.10634451      0.39809749
 H      4.72508774     -3.24258447     -0.96494571
 H      5.86779516     -1.26413633     -3.02222867
 H      5.90317696     -3.10987735     -3.09166533
