16

 C      1.08352333     -0.14177105      0.13393389
 N      2.50813674     -0.00497463     -0.18808936
 C      3.08441959     -0.57128878     -1.42489662
 C      3.00906601      0.89250481     -1.28625338
 C      4.18106491      1.73794141     -0.98570937
 C      5.42341642      1.41452123     -1.31631717
 H      0.91267963     -1.11710934      0.58861450
 H      0.50528811     -0.05916621     -0.78479301
 H      0.79700868      0.65171487      0.82284507
 H      3.13168584     -0.04043201      0.61348963
 H      4.03265119     -1.07430055     -1.28583372
 H      2.36320533     -1.08504044     -2.04758513
 H      2.17172398      1.37975377     -1.77784751
 H      3.96467236      2.68904932     -0.50808349
 H      5.66939372      0.49421294     -1.83574382
 H      6.24771838      2.08184071     -1.09641135
