14

C       1.56039819      0.32241199     -0.04397402
N       3.02730391      0.29002285     -0.10016443
C       3.75325709     -0.51433419     -1.10040900
C       3.79286928      0.96347092     -1.20308001
C       4.94697927      1.70701621     -0.81938884
C       5.92060913      2.33448529     -0.51249224
H       1.24561759      1.24677779      0.43818738
H       1.21090592     -0.54052034      0.52201382
H       1.16680739      0.28071758     -1.05833161
H       3.48949095      0.35892232      0.80260753
H       4.62448382     -1.03268194     -0.72156660
H       3.10798038     -1.06871648     -1.76989929
H       3.12683953      1.42503206     -1.92598922
H       6.78952955      2.89521828     -0.24446414
