18

C       1.13009613      0.08623805     -0.07836935
N       2.58570941      0.04801846      0.18841655
C       3.10794246      1.19691895      0.99938855
C       4.49656646      0.74802788      1.43540598
C       4.46834294     -0.79689544      1.38032566
C       3.05815830     -1.16158408      0.93890961
H       0.85061469     -0.78341802     -0.67112899
H       0.88826525      0.99870177     -0.62127172
H       0.60333004      0.07100241      0.87438751
H       3.07260165      0.06039713     -0.70984085
H       2.42190865      1.30817574      1.84069633
H       3.07980142      2.10591530      0.39950043
H       4.71837878      1.12492999      2.43270700
H       5.26091065      1.14599911      0.76747585
H       5.20546525     -1.17281538      0.67001362
H       4.69342788     -1.25297181      2.34320088
H       2.98318437     -2.03891941      0.29733145
H       2.37438868     -1.27995767      1.78119649
