18

C       1.18524463      0.30337505     -0.16775903
N       2.54932858     -0.26239267      0.03277334
C       3.09676306     -0.04950974      1.38965165
C       4.57589519     -0.08678278      1.56864193
C       3.83469688      1.21546567      1.67722436
C       3.65753973      1.90781901      2.99825304
H       0.86667196      0.11539826     -1.19168113
H       1.22657407      1.37200118      0.02985889
H       0.50579904     -0.17933873      0.53150462
H       3.19057373      0.15302222     -0.64611195
H       2.53815205     -1.26465901     -0.17233933
H       2.44451168     -0.47980212      2.13992732
H       5.20190733     -0.24980677      0.69788520
H       4.94480600     -0.55408334      2.47319757
H       3.96596862      1.87999877      0.82515937
H       3.52717482      1.18636151      3.80772855
H       2.78994871      2.57025290      2.98847665
H       4.53828991      2.50919060      3.22914995
