18

C       2.82303334     -1.00863645     -0.16398046
N       2.27716866      0.35022454      0.09857836
C       2.81683531      1.41671972     -0.80772301
C       2.41165022      2.86186132     -0.51299700
C       3.84981985      3.25607012     -0.91530685
C       4.28896148      1.79940310     -0.64795918
H       2.39530240     -1.71258276      0.54763428
H       3.90465936     -0.97300658     -0.05343334
H       2.56179279     -1.29704113     -1.18015065
H       1.25799249      0.33273408      0.01979693
H       2.48089971      0.61930792      1.06335469
H       2.56826652      1.10606198     -1.82378127
H       1.57326589      3.27758403     -1.06989262
H       2.24795765      3.02590106      0.55646907
H       3.91840460      3.51120635     -1.97254250
H       4.33296688      4.03488388     -0.33024264
H       4.62644412      1.67885023      0.38626038
H       5.01305172      1.33664461     -1.31644320
