18

 C      2.82003703     -1.14256651     -0.12365794
 N      2.27417235      0.21629448      0.13890088
 C      2.81383900      1.28278966     -0.76740049
 C      2.40865391      2.72793126     -0.47267448
 C      3.84682354      3.12214006     -0.87498432
 C      4.28596517      1.66547304     -0.60763665
 H      2.39230609     -1.84651282      0.58795680
 H      3.90166305     -1.10693664     -0.01311082
 H      2.55879648     -1.43097119     -1.13982813
 H      1.25499618      0.19880402      0.06011945
 H      2.47790340      0.48537786      1.10367721
 H      2.56527021      0.97213192     -1.78345875
 H      1.57026958      3.14365397     -1.02957010
 H      2.24496134      2.89197100      0.59679159
 H      3.91540829      3.37727629     -1.93221997
 H      4.32997057      3.90095382     -0.28992011
 H      4.62344781      1.54492017      0.42658291
 H      5.01005541      1.20271455     -1.27612067
