18

C       1.22937198      0.43417542     -0.08701831
N       1.92070246     -0.29485254     -1.18711700
C       2.92557575     -1.31210060     -0.75692501
C       4.09368863     -0.71463632     -0.03366739
C       3.08691980     -2.45907596     -1.69912596
C       2.35755020     -2.64393890     -0.39913370
H       0.47126255      1.08528762     -0.51899249
H       1.95842808      1.02691987      0.45873098
H       0.76982811     -0.29760623      0.57369126
H       1.22055832     -0.76293690     -1.76504774
H       2.38455995      0.37923300     -1.80165580
H       4.59667382      0.04732191     -0.63684962
H       4.82291176     -1.49933996      0.16714740
H       3.81397076     -0.28078890      0.92833335
H       4.08328238     -2.86735173     -1.80664596
H       2.50144009     -2.48227647     -2.61229408
H       2.84238291     -3.18402830      0.40360925
H       1.28372046     -2.79109601     -0.44323216
