18

 C      1.20278318      0.56496407     -0.01630891
 N      1.89411366     -0.16406389     -1.11640761
 C      2.89898695     -1.18131195     -0.68621562
 C      4.06709983     -0.58384767      0.03704200
 C      3.06033100     -2.32828731     -1.62841656
 C      2.33096140     -2.51315025     -0.32842430
 H      0.44467375      1.21607627     -0.44828309
 H      1.93183928      1.15770852      0.52944037
 H      0.74323931     -0.16681758      0.64440066
 H      1.19396952     -0.63214825     -1.69433834
 H      2.35797115      0.51002165     -1.73094641
 H      4.57008502      0.17811056     -0.56614023
 H      4.79632296     -1.36855131      0.23785679
 H      3.78738196     -0.15000025      0.99904274
 H      4.05669358     -2.73656308     -1.73593657
 H      2.47485128     -2.35148782     -2.54158468
 H      2.81579411     -3.05323965      0.47431865
 H      1.25713166     -2.66030736     -0.37252276
