18

C       1.32476502     -0.13237803     -0.33002168
N       2.77055178     -0.45781922     -0.44069624
C       3.65946310      0.23668723      0.56082963
C       5.08804038     -0.09910904      0.30415531
C       5.81275022      0.58001019     -0.83167471
C       6.13593593      0.93791469      0.57854858
H       0.77287794     -0.68374747     -1.08943282
H       1.19617999      0.93796090     -0.47759989
H       0.97821974     -0.41414418      0.66232611
H       3.11785465     -0.22212303     -1.37324220
H       2.90451200     -1.46628437     -0.34593531
H       3.31535890     -0.07727247      1.54836731
H       3.46793121      1.30549771      0.44890604
H       5.36642008     -1.12590727      0.52246300
H       5.27679587      1.31694871     -1.42133798
H       6.52703637     -0.00684611     -1.39388522
H       5.81025986      1.90357997      0.94529812
H       7.07143097      0.59275880      0.99740797
