18

C       1.30889396     -0.14869536      1.38257661
N      -0.06542558     -0.11329491      0.80542802
C      -0.57299533      1.28248427      0.73931077
C      -0.10473234     -0.88087243     -0.46967435
C      -1.18733848     -0.71946876     -1.47642473
C       0.20638972     -0.25123567     -1.78096852
H       1.61866658     -1.18567921      1.49678275
H       1.30270296      0.34932472      2.35061600
H       1.97944383      0.36492435      0.69643366
H      -0.67861611     -0.61443400      1.45176859
H       0.08245312      1.87090608      0.10198495
H      -0.56472146      1.69296839      1.74737687
H      -1.58862000      1.28635143      0.35284539
H       0.26820764     -1.88107006     -0.28591406
H      -1.55672304     -1.62696008     -1.93577668
H      -1.94184931      0.04386198     -1.33957195
H       0.35879514      0.81900912     -1.83457621
H       0.82525071     -0.82108185     -2.46124109
