18

 C      1.36086097     -0.03979055      1.49036731
 N     -0.01345857     -0.00439010      0.91321872
 C     -0.52102832      1.39138908      0.84710147
 C     -0.05276533     -0.77196762     -0.36188365
 C     -1.13537147     -0.61056395     -1.36863403
 C      0.25835673     -0.14233086     -1.67317782
 H      1.67063359     -1.07677440      1.60457345
 H      1.35466997      0.45822953      2.45840670
 H      2.03141084      0.47382916      0.80422436
 H     -0.62664910     -0.50552919      1.55955929
 H      0.13442013      1.97981089      0.20977565
 H     -0.51275445      1.80187320      1.85516757
 H     -1.53665299      1.39525624      0.46063609
 H      0.32017464     -1.77216525     -0.17812336
 H     -1.50475604     -1.51805527     -1.82798598
 H     -1.88988230      0.15276679     -1.23178125
 H      0.41076215      0.92791393     -1.72678551
 H      0.87721772     -0.71217705     -2.35345039
