18

 C      0.85614550     -0.26631870     -0.18829229
 N      2.27612659      0.13469778     -0.36658092
 C      2.57915754      0.45021300     -1.78748816
 C      2.65130072      1.26923711      0.56159236
 C      4.12123026      1.49595919      0.60645131
 C      4.69128437      2.63503961      0.24108071
 H      0.63297233     -1.09755789     -0.85482329
 H      0.22339138      0.58508151     -0.43402181
 H      0.69500112     -0.56259363      0.84673533
 H      2.85771280     -0.66276596     -0.10212720
 H      1.93539500      1.27117415     -2.10033957
 H      2.38042486     -0.43048283     -2.39556923
 H      3.62336780      0.74328048     -1.87041300
 H      2.26075499      0.99026083      1.54347030
 H      2.11083085      2.14888565      0.20877563
 H      4.72767553      0.69253454      1.02051123
 H      4.11232975      3.46855922     -0.14445356
 H      5.76007553      2.78401235      0.33560464
