16

C       1.29193520      0.38670876      0.03159328
N       2.76319034      0.23446093     -0.11871496
C       3.13500817     -1.13542989     -0.56713490
C       3.33229565      1.29637554     -1.02724463
C       4.77545877      1.30344629     -0.98331785
C       5.97250065      1.32637720     -0.93895411
H       1.07230724      1.37494089      0.43228078
H       0.92473884     -0.38143344      0.70951626
H       0.82929925      0.26832265     -0.94719411
H       3.19363168      0.38243454      0.79682868
H       2.65764517     -1.32271577     -1.52796986
H       2.78366053     -1.85389763      0.17103503
H       4.21720059     -1.18947062     -0.66657666
H       2.95315383      1.08885118     -2.03140631
H       2.92335066      2.25443501     -0.69707426
H       7.03958610      1.35734103     -0.90777038
