20

C       1.39417057     -0.00507657      1.59405950
N      -0.02253107      0.03288307      1.14773274
C      -0.32107852     -0.00850044     -0.36042595
C      -1.83732942      0.05498115     -0.45936066
C       0.32698970      1.20137491     -1.00765143
C       0.21516788     -1.31512447     -0.91553930
H       1.41393161      0.02814706      2.68232333
H       1.92067418      0.85603784      1.19192812
H       1.85542795     -0.92575714      1.24762547
H      -0.52433896     -0.74909063      1.57285496
H      -0.46278112      0.87804434      1.51633161
H      -2.31469295     -0.79637351      0.03403383
H      -2.13121636      0.02803054     -1.50873596
H      -2.23587698      0.98030665     -0.03378351
H       0.00008959      2.13743213     -0.54627400
H       0.02580733      1.23663558     -2.05522923
H       1.41655354      1.15403787     -0.98856654
H      -0.19689353     -2.18256276     -0.39221342
H       1.30452062     -1.36606956     -0.89084592
H      -0.08565073     -1.39703272     -1.96057698
