18

 C      0.93224299     -0.27417773     -0.09116765
 N      2.38329467      0.01691763      0.04434673
 C      2.92829188      1.16811322     -0.80023972
 C      2.30252896      2.47515143     -0.36465497
 C      4.41771571      1.15027386     -0.67118517
 C      5.22647479      0.77006460     -1.64988421
 H      0.69571666     -1.16362069      0.49056824
 H      0.70879926     -0.44647333     -1.14233105
 H      0.35927679      0.57087699      0.28020885
 H      2.60422307      0.20980587      1.02390418
 H      2.92509761     -0.81342694     -0.20347887
 H      2.63894468      0.91579377     -1.82359877
 H      2.52433307      2.69548264      0.68356183
 H      1.22299948      2.49992774     -0.51535422
 H      2.73374012      3.27808395     -0.96334924
 H      4.82683441      1.50443831      0.27357904
 H      4.84817434      0.44437850     -2.61438983
 H      6.30278545      0.79034853     -1.52978301
