18

C       1.31509174     -0.22131930      0.27581957
N       2.78356333     -0.00395693      0.20635595
C       3.41100637     -0.31982016     -1.13721975
C       4.87297664     -0.06491241     -1.10721891
C       5.77450424     -1.04485987     -1.14562800
C       7.24428753     -0.85878399     -1.15607240
H       0.96076051      0.03077879      1.27375440
H       1.10700265     -1.26685486      0.05780178
H       0.83298791      0.41468000     -0.46410495
H       3.00135501      0.96612724      0.44210150
H       3.26028919     -0.57038747      0.91108632
H       3.17999274     -1.36591501     -1.34200024
H       2.88224263      0.30513473     -1.86076515
H       5.19704143      0.97387741     -1.09404383
H       5.41944926     -2.07454587     -1.19714766
H       7.52832832      0.19207230     -1.09706068
H       7.67015894     -1.28642568     -2.06865776
H       7.70398855     -1.39790692     -0.32265018
