20

 C      0.99768590     -1.27499825      1.99998615
 N      2.48050879     -1.36636143      1.94431083
 C      3.16796469     -0.11308157      1.48711843
 C      4.67914218     -0.26832892      1.46321276
 C      5.28327138      1.02456502      0.92754477
 C      5.24409707     -0.61745084      2.83497607
 H      0.59157127     -2.22621681      2.33967872
 H      0.62484382     -1.04249245      1.00452554
 H      0.72404444     -0.48208412      2.69308926
 H      2.84737586     -1.61240458      2.86598281
 H      2.75414299     -2.13113547      1.32399338
 H      2.76720952      0.11527012      0.49798034
 H      2.85921334      0.67566955      2.17734191
 H      4.92661927     -1.07446651      0.75886036
 H      5.07491887      1.86221973      1.59858029
 H      4.89570231      1.27469583     -0.06238048
 H      6.36624859      0.92744149      0.84575399
 H      4.98176178      0.14341665      3.57626781
 H      6.33283975     -0.66590026      2.79096054
 H      4.91907090     -1.59450393      3.21056342
