18

 C      1.33242452      0.16885946     -0.07945357
 N      2.80256309      0.37014557      0.01260934
 C      3.55051142     -0.74988252      0.69719293
 C      5.01961724     -0.46172032      0.73146890
 C      5.75771065     -0.54624491     -0.56863308
 C      5.59943208     -0.18399428      1.89495247
 H      0.88419913      1.02415698     -0.58201680
 H      0.93025678      0.07297229      0.92716831
 H      1.14008731     -0.74092572     -0.64467740
 H      3.00817504      1.23602226      0.51588131
 H      3.19213924      0.49387958     -0.92374522
 H      3.31557825     -1.65446081      0.13033826
 H      3.12479095     -0.83707482      1.69663274
 H      5.66486367     -1.54494009     -1.00673371
 H      6.81709613     -0.33496632     -0.43067980
 H      5.38975502      0.16643283     -1.31711304
 H      6.66368220      0.00958383      1.96109535
 H      5.04106844     -0.16182508      2.82466506
