18

C       1.49647040      0.13916341      0.04418304
N       2.96660897      0.34044952      0.13624595
C       3.71455730     -0.77957857      0.82082954
C       5.18366312     -0.49141637      0.85510551
C       5.92175653     -0.57594097     -0.44499647
C       5.76347796     -0.21369033      2.01858908
H       1.04824501      0.99446093     -0.45838019
H       1.09430266      0.04327624      1.05080492
H       1.30413319     -0.77062177     -0.52104079
H       3.17222092      1.20632621      0.63951791
H       3.35618512      0.46418353     -0.80010861
H       3.47962413     -1.68415686      0.25397487
H       3.28883683     -0.86677087      1.82026935
H       5.82890955     -1.57463615     -0.88309710
H       6.98114201     -0.36466238     -0.30704319
H       5.55380090      0.13673677     -1.19347643
H       6.82772808     -0.02011222      2.08473196
H       5.20511432     -0.19152113      2.94830167
