18

C       1.07234648      0.07227448     -0.00491266
N       2.55902717      0.08562168      0.05683882
C       3.14909322      1.33210153      0.65205653
C       4.66488476      1.26600580      0.67876065
C       5.23155618      2.48220119      1.34587030
C       5.97850857      3.38314632      0.72753768
H       0.74055270     -0.86399474     -0.45031833
H       0.74217234      0.91369971     -0.61066038
H       0.68146544      0.16595668      1.00619487
H       2.94032279     -0.03790535     -0.88340742
H       2.88643402     -0.71913703      0.59529833
H       2.72669434      1.42654707      1.65408934
H       2.79289829      2.16769410      0.04784524
H       5.05697849      1.19019909     -0.34081004
H       4.98197990      0.36667380      1.22358771
H       5.00402883      2.60070830      2.40273173
H       6.23836927      3.29082317     -0.32243604
H       6.37142022      4.24379920      1.25470967
