16

C       1.53328001     -0.28731953     -0.16710866
N       3.01133365     -0.44262563     -0.26383437
C       3.46061441     -1.81653196     -0.66413365
C       4.97823769     -1.89715043     -0.74140647
C       5.38026703     -3.23548136     -1.13005596
C       5.68688670     -4.34764239     -1.45203531
H       1.30052856      0.73457714      0.12697184
H       1.15872749     -0.98722098      0.57701293
H       1.09683095     -0.50743315     -1.13918416
H       3.38016571      0.23470898     -0.93490363
H       3.43677291     -0.20407879      0.63463658
H       3.06205279     -2.51047196      0.07627003
H       3.00057392     -2.03392169     -1.62834636
H       5.36204061     -1.17227364     -1.46986122
H       5.42333452     -1.64739026      0.22962701
H       5.97381439     -5.33432302     -1.73822458
