16

N       1.18891387     -0.07907166      0.11587735
C       2.64580440      0.04762256     -0.13990648
C       3.18117186     -0.47716082     -1.42536932
C       3.11190668      1.00338939     -1.19414712
C       4.31459618      1.83349927     -0.94302201
C       5.54152672      1.50798141     -1.31885006
H       0.95150995     -1.00599356      0.48017026
H       0.65514973      0.05685113     -0.74572264
H       0.86528544      0.61829471      0.79149219
H       3.21247114     -0.06449168      0.77548674
H       4.13933935     -0.97742341     -1.37795564
H       2.49052912     -0.90771978     -2.14218744
H       2.31473734      1.51283567     -1.73521382
H       4.13539015      2.77418927     -0.42906089
H       5.75948370      0.59309985     -1.85941806
H       6.37976568      2.16079901     -1.10945040
