14

 N      0.98762644     -0.06841080      0.09684525
 C      2.46955431     -0.10433749      0.08717434
 C      3.15921940     -0.87508057     -0.97614666
 C      3.18973953      0.63733674     -0.99992388
 C      4.37760138      1.36244341     -0.66876399
 C      5.37665894      1.96547871     -0.39530405
 H      0.63972421      0.76864045      0.57335502
 H      0.59865817     -0.88803526      0.57234758
 H      0.61080579     -0.05985036     -0.85403720
 H      2.86727708     -0.08169447      1.09318620
 H      4.05871962     -1.40349392     -0.69007821
 H      2.56647024     -1.36333212     -1.74168239
 H      2.56643386      1.09548404     -1.76555406
 H      6.26811901      2.50239364     -0.16095379
