18

N       1.13508652      0.04799263     -0.04495043
C       2.63198339      0.03000055      0.14842694
C       3.11259963      1.17373287      1.02133500
C       4.52604101      0.71442734      1.38212210
C       4.45336199     -0.82645607      1.46843834
C       3.09199732     -1.22845597      0.86802709
H       0.81937389     -0.74603991     -0.60565094
H       0.82697404      0.90436710     -0.50983753
H       0.66191582     -0.00299751      0.86044002
H       3.05376955      0.09767365     -0.85757673
H       2.49059546      1.23177437      1.92367117
H       3.08429124      2.14710976      0.52753596
H       4.87236624      1.17267737      2.30746306
H       5.22195912      1.02023809      0.59835121
H       5.27398405     -1.28647129      0.91838213
H       4.53008601     -1.17812036      2.49683907
H       3.14906723     -2.09881784      0.21232340
H       2.38205451     -1.46755576      1.66891313
