14

N       1.09575820      0.03532837      0.03584945
C       2.60685997      0.03431865      0.00038717
C       3.13023156      1.21930452     -0.75772051
C       3.90668834      0.76703403     -1.74712972
C       3.90574443     -0.70401472     -1.74546617
C       3.12870932     -1.15304948     -0.75503771
H       0.73007544      0.86288779      0.51165919
H       0.72901442     -0.79068282      0.51352914
H       0.73521330      0.03447668     -0.92185725
H       2.94064868      0.03528476      1.04408997
H       2.94731489      2.24858042     -0.47946635
H       4.46851053      1.37630600     -2.44221904
H       4.46678326     -1.31557772     -2.43917490
H       2.94447232     -2.18145783     -0.47445660
