14

 N      0.82885656      0.03565614      0.17424903
 C      2.33995833      0.03464642      0.13878675
 C      2.86332992      1.21963229     -0.61932093
 C      3.63978670      0.76736180     -1.60873014
 C      3.63884279     -0.70368695     -1.60706659
 C      2.86180768     -1.15272171     -0.61663813
 H      0.46317380      0.86321556      0.65005877
 H      0.46211278     -0.79035505      0.65192872
 H      0.46831166      0.03480445     -0.78345767
 H      2.67374704      0.03561253      1.18248955
 H      2.68041325      2.24890819     -0.34106677
 H      4.20160890      1.37663377     -2.30381946
 H      4.19988163     -1.31524995     -2.30077532
 H      2.67757068     -2.18113006     -0.33605702
