15
0592.log
N      0.000011   -0.000007    1.887966
C      0.713789    0.000007    0.618450
C      0.378060   -1.197423   -0.303514
C     -0.686364   -0.650820   -1.207700
C     -0.737010    0.676222   -1.151893
C      0.279932    1.230647   -0.198447
H      0.216568   -0.839122    2.413487
H     -1.000241   -0.014720    1.715308
H      1.781295    0.032014    0.849162
H      0.056846   -2.070106    0.274810
H      1.251757   -1.514284   -0.888524
H     -1.306443   -1.271350   -1.844640
H     -1.400375    1.299087   -1.741081
H     -0.108440    2.012730    0.459745
H      1.122433    1.669136   -0.747097
