16

N       1.21105690      0.15946097     -0.00287469
C       2.74636740      0.12158753      0.06203058
C       3.22752209     -1.16040803      0.74517023
C       3.60942050     -0.75156156      2.17791661
C       3.66675962      0.73920061      2.10811181
C       3.21776894      1.22455204      0.95289496
H       0.83636560     -0.59674228     -0.57928622
H       0.88379364      1.04664859     -0.39010669
H       0.82147304      0.07400240      0.93822439
H       3.05394736      0.20709557     -0.98184913
H       4.10965352     -1.51196518      0.20881761
H       2.49756403     -1.97310828      0.70040096
H       4.56744987     -1.18120650      2.47877372
H       2.88695432     -1.08020184      2.93326950
H       4.04367587      1.34877449      2.92090296
H       3.18622997      2.26972481      0.66913139
