18

N       3.37679707     -0.13875969     -0.94878400
C       2.46972412      0.05868019      0.24330880
C       2.94676074     -0.78745926      1.39081884
C       2.01128789     -0.91573061      2.61169742
C       2.42986255     -2.39507311      2.71320299
C       2.90591375     -2.32690356      1.24803480
H       3.05562658      0.37416551     -1.77188661
H       3.42315403     -1.13209414     -1.18934922
H       4.32831893      0.16834429     -0.73659172
H       1.47014813     -0.23105883     -0.08579390
H       2.47335586      1.12681326      0.46712997
H       3.93880384     -0.45399424      1.71611308
H       0.96217035     -0.81502162      2.32226669
H       2.20506693     -0.26185752      3.46069674
H       3.26703508     -2.53087612      3.39860050
H       1.65732534     -3.12241885      2.95448381
H       3.82918953     -2.84825930      0.98905491
H       2.11099627     -2.64567840      0.56478589
