16

N      -0.00083074     -0.01215928      1.56188607
C       0.72147725      0.03052191      0.22667851
C       0.24356001     -1.07901587     -0.65068426
C      -0.78209732     -1.88763395     -0.43264520
C       0.56894606      1.41653481     -0.33392568
C      -0.20868572      1.71513906     -1.36462620
H       0.35162610      0.71318950      2.18831200
H       0.10935172     -0.92258104      2.01529730
H      -0.99873949      0.16048279      1.41827290
H       1.77324020     -0.14315783      0.48112197
H       0.83989655     -1.19409107     -1.55055755
H      -1.43103787     -1.83919494      0.43783449
H      -1.02934529     -2.66622950     -1.14314516
H       1.16077736      2.19085690      0.14881827
H      -0.78814008      0.96206668     -1.88798586
H      -0.27784409      2.73283451     -1.72925162
