16

 N     -0.07546600     -0.03162606      1.68902636
 C      0.64684199      0.01105513      0.35381880
 C      0.16892476     -1.09848265     -0.52354397
 C     -0.85673257     -1.90710073     -0.30550491
 C      0.49431080      1.39706803     -0.20678539
 C     -0.28332098      1.69567228     -1.23748591
 H      0.27699084      0.69372272      2.31545229
 H      0.03471646     -0.94204782      2.14243759
 H     -1.07337475      0.14101601      1.54541319
 H      1.69860494     -0.16262461      0.60826226
 H      0.76526130     -1.21355785     -1.42341726
 H     -1.50567312     -1.85866172      0.56497478
 H     -1.10398054     -2.68569628     -1.01600487
 H      1.08614210      2.17139012      0.27595856
 H     -0.86277534      0.94259990     -1.76084557
 H     -0.35247935      2.71336773     -1.60211133
