15
0614.log
N     -0.000101   -0.000215    1.719213
C      0.583600    0.000075    0.388768
C      0.122443   -1.073702   -0.558172
C     -0.831335   -1.961779   -0.320406
C      0.439064    1.387240   -0.178759
C     -0.219113    1.714967   -1.281119
H      0.126255   -0.900003    2.166579
H     -0.995485    0.181507    1.665189
H      1.664910   -0.156981    0.528807
H      0.652612   -1.107286   -1.508125
H     -1.385963   -1.969946    0.612329
H     -1.093340   -2.717671   -1.051205
H      0.906339    2.160533    0.425591
H     -0.715091    0.970708   -1.894956
H     -0.287601    2.746848   -1.605800
