14

 N     -0.05995607     -0.02491764      1.83260350
 C      0.56826775      0.01258774      0.43107175
 C      0.39044289     -1.33991026     -0.19413211
 C     -0.32789306     -1.56171506     -1.28351311
 C     -0.02781780      1.12792776     -0.27224669
 C     -0.52422970      2.06502545     -0.82970834
 H      0.07465152      0.86471179      2.31898241
 H      0.34187335     -0.77603598      2.39802087
 H     -1.06538539     -0.19331808      1.74506047
 H      1.63080240      0.20843339      0.61470414
 H      0.93394315     -2.14869618      0.28875823
 H     -0.84255017     -0.76033312     -1.80241160
 H     -0.40402344     -2.55795530     -1.70154548
 H     -0.95468421      2.89991605     -1.33858276
