16

N      -0.10012231     -0.07223092      2.49347228
C       0.91824480      0.09176630      1.36559200
C       0.26164910      0.61906708      0.14932412
C       0.06210025     -0.13136361     -0.94350218
C      -0.54125700      0.33940143     -2.16572870
C      -0.70189787     -0.44699240     -3.23062022
H       0.32467832     -0.43436092      3.35042454
H      -0.84287410     -0.71066640      2.20103545
H      -0.54023169      0.82389189      2.71146218
H       1.68481886      0.75761370      1.76747477
H       1.35188757     -0.89605304      1.20911818
H      -0.02041670      1.66929186      0.14880287
H       0.38809230     -1.17143514     -0.93821239
H      -0.86466482      1.37599973     -2.19869100
H      -0.38201600     -1.48393621     -3.22405320
H      -1.15460136     -0.07902538     -4.14289070
