15
0617.log
N      0.000196    0.000843    2.842167
C      0.892201   -0.000389    1.690189
C      0.166624    0.461325    0.473443
C      0.111748   -0.210100   -0.678773
C     -0.589680    0.253352   -1.857621
C     -0.639818   -0.410918   -3.012027
H      0.505406   -0.229302    3.688275
H     -0.726374   -0.694365    2.723131
H      1.367103   -0.971437    1.481657
H      1.702993    0.706015    1.908124
H     -0.355513    1.411605    0.568817
H      0.623747   -1.168251   -0.759739
H     -1.101931    1.209207   -1.769538
H     -0.138813   -1.365910   -3.135053
H     -1.179539   -0.023683   -3.867424
