16

 N     -0.07240658     -0.08989139      1.91353955
 C      0.94968392      0.04155216      0.80573131
 C      0.25132041      0.50279919     -0.43460574
 C      0.53568029      1.69852762     -0.95559348
 C     -0.75565618     -0.38317934     -1.01635551
 C     -0.94986886     -1.66501124     -0.70104314
 H      0.31059981     -0.52321952      2.75529749
 H     -0.85370041     -0.66003587      1.56765149
 H     -0.44972914      0.82630725      2.16300131
 H      1.70662668      0.74713121      1.14320672
 H      1.40592842     -0.94357703      0.69382019
 H      0.03936390      2.04773624     -1.85355032
 H      1.28542443      2.35167765     -0.52392129
 H     -1.38727005      0.06944017     -1.77528156
 H     -0.32458306     -2.21154224      0.00126232
 H     -1.71845377     -2.24851340     -1.19138680
