15
0619.log
N      0.000730    0.001065    1.964817
C      0.922509   -0.000191    0.832398
C      0.240416    0.480320   -0.418169
C      0.494805    1.688197   -0.926385
C     -0.718698   -0.399121   -1.081551
C     -0.981009   -1.665473   -0.759437
H      0.433414   -0.430471    2.772039
H     -0.828507   -0.536486    1.745159
H      1.370171   -0.986773    0.628999
H      1.746718    0.678425    1.064495
H      1.204796    2.361028   -0.459749
H     -0.003473    2.037928   -1.824362
H     -1.247828    0.043586   -1.922477
H     -0.481671   -2.170734    0.060424
H     -1.702901   -2.246465   -1.320194
