16

N      -0.07759107     -0.04493781      1.68683260
C       0.94449943      0.08650573      0.57902436
C       0.24613592      0.54775276     -0.66131269
C       0.53049580      1.74348119     -1.18230043
C      -0.76084067     -0.33822576     -1.24306246
C      -0.95505335     -1.62005766     -0.92775009
H       0.30541532     -0.47826594      2.52859054
H      -0.85888490     -0.61508229      1.34094454
H      -0.45491363      0.87126083      1.93629436
H       1.70144219      0.79208478      0.91649977
H       1.40074393     -0.89862346      0.46711324
H       0.03417941      2.09268981     -2.08025727
H       1.28023994      2.39663122     -0.75062824
H      -1.39245454      0.11439375     -2.00198851
H      -0.32976755     -2.16658866     -0.22544463
H      -1.72363826     -2.20355982     -1.41809375
