18

 N      1.06477076     -0.21211125      0.28749342
 C      2.56898079     -0.08758214      0.30694077
 C      3.05564763      0.68028121     -0.89935350
 C      4.58086484      0.80527526     -0.89733260
 C      5.07315507      1.59942521     -2.06485306
 C      5.86782891      1.12190172     -3.01004804
 H      0.71153916     -0.73185399      1.09356165
 H      0.75253816     -0.69399670     -0.55852363
 H      0.62454823      0.71066862      0.29100109
 H      2.82403782      0.40844026      1.24467678
 H      2.96005708     -1.10577839      0.33423871
 H      2.74065667      0.17573935     -1.81991538
 H      2.60916371      1.68185835     -0.90884619
 H      4.89697455      1.28802946      0.03582228
 H      5.03342779     -0.19092317     -0.91232756
 H      4.74652831      2.63649250     -2.11263054
 H      6.22562260      0.09701912     -2.99167040
 H      6.20247961      1.74228994     -3.83247243
