16

 N      1.09582028     -0.42878848     -0.04048176
 C      2.56503220     -0.11986260      0.08720278
 C      3.02374784      0.78181708     -1.03591332
 C      4.54625533      0.96056098     -1.00069110
 C      5.24955061     -0.30618432     -1.11289770
 C      5.80221575     -1.36731066     -1.20381190
 H      0.77152821     -1.04096130      0.71108291
 H      0.90063064     -0.89556914     -0.92917655
 H      0.53316175      0.42450367     -0.01367277
 H      2.70268515      0.33438178      1.06952100
 H      3.09067222     -1.07588708      0.06372158
 H      2.74646580      0.34281956     -2.00049801
 H      2.54510311      1.76347084     -0.96290149
 H      4.83828792      1.61989191     -1.82236969
 H      4.84438527      1.47002330     -0.07804755
 H      6.32665409     -2.29137892     -1.29355831
