13

 N      3.28558587      1.84856113     -1.60265082
 C      3.47206738      1.07052064     -0.77975108
 C      3.72591478      0.05397943      0.22695416
 N      4.41906763     -1.09764466     -0.38816741
 C      4.27965819     -2.46734298      0.16096224
 C      3.66932716     -2.13512954     -1.13526311
 H      2.78802487     -0.30069129      0.66037702
 H      4.35302873      0.44762322      1.03062444
 H      5.33224664     -0.86547509     -0.77074634
 H      5.20291599     -3.03207223      0.19301967
 H      3.65528059     -2.52376862      1.04391823
 H      4.14507062     -2.45682574     -2.05294483
 H      2.60396972     -1.94792245     -1.19146324
