16

 C     -0.66627065     -0.32701601      1.24228800
 C      0.68389846      0.35480340      1.16075900
 O      1.36965231     -0.02926887      0.00000000
 C      0.68389846      0.35480340     -1.16075900
 C     -0.66627065     -0.32701601     -1.24228800
 N     -1.44615694     -0.00072790     -0.00000000
 H     -0.55681560     -1.41186255      1.26704500
 H     -1.24629733      0.00263745      2.10504700
 H      1.28771045      0.05462134      2.01747700
 H      0.56527788      1.44907840      1.19942700
 H      0.56527788      1.44907840     -1.19942700
 H      1.28771045      0.05462134     -2.01747700
 H     -1.24629733      0.00263745     -2.10504700
 H     -0.55681560     -1.41186255     -1.26704500
 H     -2.33552753     -0.50238847      0.00000000
 H     -1.67398406      0.99675186     -0.00000000
