14

C       0.58817509      1.28472810     -0.36448892
O      -0.61742729      1.08061444     -1.07440409
C      -1.39276809      0.14053288     -0.35731810
C      -0.36511176     -0.81905020      0.19262064
N       0.66503017     -1.13820790     -0.83601652
C       0.90887820     -0.08319204      0.18800892
H       0.46749798      1.97551532      0.47930321
H       1.33277576      1.68536901     -1.05306207
H      -2.11558988     -0.30641123     -1.04057932
H      -1.92625339      0.59288157      0.48796835
H      -0.60585260     -1.62100096      0.87752730
H       1.17076335     -2.01329929     -0.75885557
H       0.47570834     -0.81637728     -1.78412716
H       1.72753846     -0.27323141      0.86908065
