14

C      -1.13858973      0.30444086     -1.45278706
C      -0.29198833     -0.37315777     -0.42816424
N       1.14575782      0.01069091     -0.34548447
C       0.21576515      0.32779990      0.77330883
C       0.43224625     -0.43398549      2.05569956
O       0.06638886      0.00389838      3.09700809
H      -2.18657539      0.17665712     -1.17454040
H      -0.99488905     -0.14524480     -2.43635227
H      -0.93541568      1.37597289     -1.50837441
H      -0.40576627     -1.44981344     -0.33295336
H       1.84222562     -0.71546481     -0.19862661
H       1.47003573      0.78464486     -0.91773653
H       0.00670191      1.38618739      0.88547283
H       0.91674212     -1.43010168      1.95262040
