16

C       1.06007665     -0.28601655     -0.01198496
C       2.55539451     -0.34992770     -0.01690908
N       3.27597941      0.73151042      0.80049641
C       4.29545857     -0.29252075      1.24711644
C       3.31891026     -1.40819136      0.81796786
O       3.78714860     -2.54598476      0.21727518
H       0.68302283      0.59401363     -0.53691322
H       0.65834377     -0.29924652      1.00451502
H       0.67561048     -1.16810781     -0.52900679
H       2.97239953     -0.29123015     -1.02590402
H       2.69722333      1.06513626      1.57112534
H       3.62538324      1.54239866      0.29256186
H       4.58131553     -0.19388776      2.29185265
H       5.17197801     -0.21897432      0.60353832
H       2.70845611     -1.73398996      1.66466697
H       4.35549116     -2.34728533     -0.53452065
