14

C       1.22051928     -0.42489141      0.25203782
C       2.70616019     -0.48010486      0.03738091
N       3.52181561      0.60004865      0.77987383
C       4.38371696     -0.43886214      1.47138059
C       3.52487570     -1.52343692      0.81268440
O       3.48438233     -2.69697891      0.88649380
H       0.77517032      0.44268103     -0.23785222
H       0.96016790     -0.42383723      1.31310557
H       0.78429586     -1.32150847     -0.19311637
H       2.98013049     -0.45147225     -1.02058363
H       2.95068801      1.14818638      1.42263907
H       4.02953263      1.24521881      0.17659857
H       4.33778712     -0.36805805      2.55781588
H       5.41845160     -0.39784194      1.13066278
