14

 C      1.01439527      0.03884685      0.21604743
 C      2.50003618     -0.01636659      0.00139052
 N      3.31569160      1.06378692      0.74388344
 C      4.17759295      0.02487613      1.43539020
 C      3.31875169     -1.05969865      0.77669401
 O      3.27825832     -2.23324064      0.85050341
 H      0.56904631      0.90641929     -0.27384261
 H      0.75404389      0.03990103      1.27711518
 H      0.57817185     -0.85777021     -0.22910676
 H      2.77400648      0.01226602     -1.05657402
 H      2.74456400      1.61192464      1.38664868
 H      3.82340862      1.70895708      0.14060818
 H      4.13166311      0.09568021      2.52182549
 H      5.21232759      0.06589633      1.09467239
