16

C       1.11814157     -0.33285415     -0.14842002
C       2.58736479     -0.11399638     -0.00023970
O       3.44926320     -1.00255691     -0.70109832
C       3.43187994      0.33642870     -1.11752123
C       4.73771235      1.03818529     -0.87945938
N       4.54264000      2.53289956     -0.88969419
H       0.56134439      0.54175066      0.19573493
H       0.80768918     -1.18561741      0.45813684
H       0.85389112     -0.53730625     -1.18676688
H       2.94030910      0.10944521      1.00813780
H       2.96861645      0.51318339     -2.09027356
H       5.47215553      0.81083660     -1.65421588
H       5.15010191      0.76846830      0.09268063
H       4.16657333      2.85083645     -1.78602430
H       5.42213053      3.02904023     -0.73016181
H       3.88206128      2.81672336     -0.16235891
