16

C       1.09490922      0.45588112      0.23207112
C       2.57767234      0.27159011      0.10575524
O       3.34191628      1.30661192      0.74269991
C       4.15604422      0.37524657      1.44673627
C       3.26960177     -0.77972664      0.98841079
N       3.96986541     -1.88161820      0.25214819
H       0.79941088      1.37767733     -0.27147307
H       0.79638854      0.52745947      1.27937573
H       0.55768135     -0.37104137     -0.24020427
H       2.86876215      0.17668709     -0.95313378
H       4.18342182      0.56466820      2.52119675
H       5.18532455      0.34011087      1.06224056
H       2.64506262     -1.24709945      1.74842839
H       4.57476607     -1.50008485     -0.48010926
H       3.30222639     -2.51509199     -0.19545272
H       4.55521839     -2.44111286      0.87797947
