17
1013.log
C     -2.111378   -0.351364   -0.236272
C     -0.890993    0.240629   -0.925708
C      0.471703   -0.265880   -0.441228
N      1.557336   -0.000310   -1.380970
C      0.919987    0.322656    0.886542
O      0.001111    0.000875    1.910985
H     -2.114199   -1.441840   -0.323287
H     -3.030641    0.017588   -0.698071
H     -2.133184   -0.105771    0.824264
H     -0.951272    0.019252   -1.997955
H     -0.904917    1.335645   -0.842944
H      0.414708   -1.353936   -0.312849
H      1.588136    0.990178   -1.600352
H      1.383756   -0.479206   -2.255978
H      1.010261    1.415584    0.772727
H      1.918046   -0.073086    1.106636
H      0.358775    0.312470    2.744583
