18

C      -2.06835580     -0.26359939     -0.02466462
C      -0.84073097      0.02441893     -0.87501516
C       0.46910289     -0.32705783     -0.19147595
N       1.58747740     -0.08424807     -1.18427750
C       0.79239257      0.44667195      1.08386732
O       0.17318204     -0.24753192      2.12286814
H      -2.96753764     -0.03042779     -0.59507597
H      -2.07936537      0.33173216      0.88733460
H      -2.11326939     -1.31498453      0.26412497
H      -0.82219083      1.08667532     -1.15144123
H      -0.91385230     -0.54598561     -1.80931149
H       0.51586629     -1.39389046      0.04385339
H       1.64765568      0.90679174     -1.43047402
H       1.41760182     -0.60146580     -2.04918297
H       2.49482052     -0.37185806     -0.81213634
H       1.88535691      0.48892579      1.22768905
H       0.42993268      1.48087287      0.99275779
H       0.23521151      0.25477869      2.94060700
