16

 C      1.04471820      0.05537043     -0.22245558
 C      2.55286310      0.11793030     -0.10686233
 O      3.20711695     -0.85156987     -0.90098512
 C      3.11026893      1.43766218     -0.59132277
 C      4.51784667      1.57066358     -0.99157211
 N      3.47270816      1.43884939     -2.03336608
 H      0.68111999     -0.91024169      0.13410189
 H      0.71864326      0.17930309     -1.25795528
 H      0.57403398      0.82654592      0.39105724
 H      2.85370711      0.02271186      0.94510824
 H      2.90489890     -1.73486045     -0.67087073
 H      2.58695577      2.33297893     -0.27698335
 H      4.99063804      2.54326091     -0.95775732
 H      5.16281930      0.70419764     -0.92856588
 H      3.40410815      0.51663024     -2.46417400
 H      3.24426127      2.23335394     -2.61868942
