16

C       1.71831134     -0.01514131     -0.16201288
N       3.08811420     -0.47412825     -0.52662517
C       3.92255319     -0.90943047      0.64070555
C       5.28862442     -1.34764452      0.19540142
C       6.40453993     -0.39624945      0.14905897
O       6.24689281     -1.30888280      1.21800281
H       1.18836150      0.27763847     -1.06655838
H       1.80560198      0.83264571      0.51438256
H       1.19800610     -0.83368489      0.33114556
H       3.58223347      0.27390514     -1.01828454
H       3.01856418     -1.24598910     -1.19341215
H       3.37918863     -1.71630994      1.13640902
H       3.99838146     -0.06379632      1.32519624
H       5.32493678     -2.23649571     -0.43571085
H       6.23979822      0.64843432      0.40560850
H       7.23852910     -0.59677222     -0.51664000
