16

 C      1.25113686      0.15727766     -0.35214300
 N      2.62093972     -0.30170928     -0.71675529
 C      3.45537871     -0.73701150      0.45057543
 C      4.82144994     -1.17522555      0.00527130
 C      5.93736545     -0.22383048     -0.04107115
 O      5.77971833     -1.13646383      1.02787269
 H      0.72118702      0.45005744     -1.25668850
 H      1.33842750      1.00506468      0.32425244
 H      0.73083162     -0.66126592      0.14101544
 H      3.11505899      0.44632411     -1.20841466
 H      2.55138970     -1.07357013     -1.38354227
 H      2.91201415     -1.54389097      0.94627890
 H      3.53120698      0.10862265      1.13506612
 H      4.85776230     -2.06407674     -0.62584097
 H      5.77262374      0.82085329      0.21547838
 H      6.77135462     -0.42435326     -0.70677012
