16

C       1.54297963      0.14861203     -0.24011221
N       3.01216600     -0.03811500     -0.40871592
C       3.36531181     -1.47884885     -0.56130750
C       3.54713508      0.77737768     -1.53820005
C       5.06817510      0.82848163     -1.53717797
O       5.69207599      0.88883333     -2.54691624
H       1.33567766      1.20243222     -0.06274193
H       1.20609522     -0.44809622      0.60588066
H       1.04694589     -0.18263868     -1.15093656
H       3.45969922      0.29584540      0.44875226
H       2.87809471     -1.85753517     -1.45850963
H       3.01607715     -2.02364952      0.31383041
H       4.44562045     -1.57941295     -0.65628692
H       3.18151245      0.36046691     -2.47667655
H       3.16671462      1.79749185     -1.42906413
H       5.55667102      0.84749399     -0.53643105
