18

 C      1.48891225     -0.79724706      0.32509433
 N      2.87692133     -0.64317877      0.82448254
 C      3.21195073      0.69571995      1.43621041
 C      2.66540513      0.82276426      2.83659559
 C      4.72195788      0.83462220      1.35327598
 O      5.06922967      0.46411244      0.03746917
 H      1.36999190     -1.79796433     -0.08665978
 H      1.31611869     -0.05531345     -0.45175164
 H      0.79021458     -0.65035306      1.14530519
 H      3.55531382     -0.75263071      0.05608222
 H      3.08320143     -1.37766154      1.50403918
 H      2.75743604      1.42754178      0.76340433
 H      3.08150712      0.06110679      3.50197944
 H      1.57723139      0.75961205      2.86348759
 H      2.93903727      1.79811082      3.24181183
 H      4.98654885      1.87285377      1.57581638
 H      5.20939068      0.18920599      2.09673656
 H      6.01623287      0.54378291     -0.10728856
