16

 C      1.32499936     -0.02099196     -0.36118749
 N      2.80184720      0.12136069     -0.22195368
 C      3.24880938      0.49160809      1.15928172
 C      4.75158711      0.62400779      1.24999234
 C      5.14535999      0.99870092      2.66539426
 O      4.33318098      1.15050147      3.53057386
 H      1.08787171     -0.28951187     -1.38905129
 H      0.85947338      0.92786579     -0.10269580
 H      0.98618132     -0.79944011      0.31931545
 H      3.13652666      0.82562150     -0.88271386
 H      3.25239283     -0.75388736     -0.49681203
 H      2.87452891     -0.27835670      1.83415297
 H      2.74953740      1.42555051      1.41785844
 H      5.14492614      1.39559925      0.57634828
 H      5.26990784     -0.30817424      0.99261014
 H      6.22915679      1.12172755      2.84353874
