18

 C      0.91689629      0.06107358     -0.42147199
 N      2.36485601      0.19396019     -0.12629226
 C      2.95977506     -0.92616891      0.66574482
 C      4.29865317     -0.46202609      1.19514712
 O      4.06149573      0.79734647      1.75932639
 C      5.19975473      1.37400577      2.38401592
 H      0.59130110      0.92198360     -1.00267909
 H      0.37293914      0.02150032      0.51996906
 H      0.75228968     -0.85493580     -0.98585014
 H      2.56077088      1.03679588      0.43251186
 H      2.88616927      0.30659750     -0.99735662
 H      3.03570867     -1.80999696      0.03305341
 H      2.26898764     -1.12357398      1.48600107
 H      5.04948179     -0.40182888      0.39242692
 H      4.66060157     -1.18635898      1.93504585
 H      4.89481479      2.34603832      2.76547643
 H      6.01566072      1.50202403      1.66528717
 H      5.53923499      0.74802365      3.21434689
