16

 C      1.33957013     -0.32078373      1.86774692
 O      0.02867891      0.04526400      1.46655975
 C     -0.31585667     -0.39536706      0.22743977
 C     -1.47166464      0.26944259     -0.43249356
 C     -0.09047271      0.53232789     -0.94049742
 N      0.29407498     -0.02192268     -2.26134945
 H      1.47279625      0.05677245      2.87887429
 H      2.09456232      0.12992696      1.21300482
 H      1.45881060     -1.40939350      1.87032703
 H     -0.18530163     -1.46518602      0.04238891
 H     -2.14364255     -0.35036634     -1.01580061
 H     -1.94812691      1.08784685      0.09221683
 H      0.36792794      1.49625634     -0.76328859
 H     -0.07888220     -0.96596389     -2.38583187
 H      1.31079437     -0.07899034     -2.36297534
 H     -0.06833154      0.55058809     -3.02965586
