16

C      -1.07929228     -0.21513591      2.13167902
O       0.11455530     -0.06559281      1.37455326
C      -0.07263647      0.41114535      0.10485541
C       1.25962998      0.75169545     -0.57364913
N       0.85380242     -0.05610448     -1.79291354
C      -0.31514935     -0.63549843     -1.01774790
H      -0.77834792     -0.54397342      3.12343414
H      -1.74061339     -0.96828933      1.68997869
H      -1.61086267      0.73864253      2.21018761
H      -0.80008528      1.23154804      0.06883868
H       1.49242350      1.78691409     -0.81054009
H       2.09699345      0.26495785     -0.07679089
H       0.56162837      0.52512775     -2.57664114
H       1.54153837     -0.72408287     -2.13756414
H      -0.07078279     -1.64723807     -0.69852195
H      -1.24044126     -0.61630508     -1.58922470
