16

 C      3.96382798      1.15931090      0.45933101
 O      2.95767916      0.64319610     -0.40483587
 C      3.30171702     -0.24595893     -1.30544601
 C      4.52082079     -0.76409405     -1.54468837
 C      4.68787756     -1.80148272     -2.57753585
 N      5.39859850     -1.23632229     -3.81672792
 H      3.46220623      1.86436387      1.11616885
 H      4.73575048      1.67534674     -0.11777807
 H      4.40858354      0.35422801      1.04976268
 H      2.43560193     -0.56737336     -1.88119997
 H      5.38102512     -0.49209358     -0.94460561
 H      5.30983778     -2.64025929     -2.25962686
 H      3.73576376     -2.18900152     -2.94140391
 H      6.31956201     -0.87454295     -3.56293102
 H      4.86125733     -0.45408534     -4.19556291
 H      5.52245390     -1.93766183     -4.55083745
