16

C       3.66458796      1.25423762      0.64505034
O       2.65843913      0.73812282     -0.21911654
C       3.00247699     -0.15103221     -1.11972668
C       4.22158076     -0.66916733     -1.35896904
C       4.38863753     -1.70655600     -2.39181652
N       5.09935847     -1.14139556     -3.63100859
H       3.16296621      1.95929059      1.30188818
H       4.43651046      1.77027346      0.06794126
H       4.10934352      0.44915473      1.23548201
H       2.13636190     -0.47244664     -1.69548064
H       5.08178509     -0.39716686     -0.75888628
H       5.01059775     -2.54533257     -2.07390753
H       3.43652373     -2.09407479     -2.75568458
H       6.02032198     -0.77961623     -3.37721169
H       4.56201730     -0.35915861     -4.00984358
H       5.22321387     -1.84273510     -4.36511812
