16

 C     -0.84464362     -0.60264486      1.92541586
 O      0.04940993     -0.05341802      0.96075501
 C     -0.41180292      0.10820313     -0.29931840
 C     -1.60129085     -0.21831347     -0.78861142
 C      0.65845965      0.76415665     -1.10868489
 N      1.94476183      0.01464858     -0.87335918
 H     -0.29376843     -0.64439611      2.86140784
 H     -1.15612368     -1.60750677      1.63009380
 H     -1.71854716      0.04244841      2.03766109
 H     -1.82131380     -0.03897284     -1.83188838
 H     -2.38706879     -0.64077430     -0.17863794
 H      0.44053241      0.76067210     -2.17379017
 H      0.83928637      1.78636119     -0.76934525
 H      1.92201608     -0.90546690     -1.31747521
 H      2.02872398     -0.13164128      0.13970634
 H      2.76332685      0.52040592     -1.21358578
