15
1080.log
C     -0.898020   -0.624342    1.904823
O      0.000036   -0.000122    1.020222
C     -0.383750    0.121454   -0.271825
C     -1.557647   -0.259849   -0.772517
C      0.701459    0.775486   -1.067379
N      1.932816    0.000005   -0.997127
H     -0.407097   -0.654535    2.876279
H     -1.127503   -1.643756    1.577126
H     -1.831130   -0.056397    1.985356
H     -2.341244   -0.705254   -0.176056
H     -1.747678   -0.125879   -1.827780
H      0.809486    1.807528   -0.693801
H      0.376331    0.836880   -2.107207
H      2.208585   -0.102145   -0.027980
H      2.680849    0.492867   -1.468470
