18

 C     -0.58647974     -0.89959575      1.88297745
 O      0.11929746     -0.13144766      0.91758195
 C     -0.42269459     -0.14643760     -0.38842450
 C     -1.77446791      0.52116688     -0.51138702
 C      0.61803908      0.59602567     -1.21391446
 N      1.96482872      0.07979746     -0.80815843
 H      0.02452738     -0.90958994      2.78333814
 H     -0.73497554     -1.92595126      1.53102916
 H     -1.55306691     -0.44803974      2.11427218
 H     -0.49287028     -1.19024445     -0.73664799
 H     -1.74336164      1.53185583     -0.09889692
 H     -2.54071817     -0.04745530      0.01511217
 H     -2.07719080      0.57785482     -1.55947520
 H      0.48467702      0.46186416     -2.28577488
 H      0.60435497      1.65899673     -0.97125174
 H      2.18438864     -0.81432667     -1.24824150
 H      1.87747813     -0.07377360      0.21323953
 H      2.72181434      0.73189896     -1.00928392
