17
1084.log
C     -0.269296   -0.637176    2.391982
O     -0.000324    0.000244    1.175985
C     -0.452566   -0.736981    0.066288
C     -0.045262   -0.018963   -1.205210
C     -0.701740    1.353498   -1.314578
N      1.409537   -0.000173   -1.273589
H      0.114944   -0.002917    3.191564
H      0.220601   -1.619160    2.449467
H     -1.348837   -0.781177    2.541597
H     -1.547325   -0.846982    0.105500
H     -0.004590   -1.740912    0.074223
H     -0.403937   -0.644322   -2.032363
H     -0.399586    1.989883   -0.480162
H     -1.793302    1.277974   -1.307626
H     -0.407340    1.844615   -2.245836
H      1.771273    0.466024   -0.449019
H      1.718370    0.533632   -2.076842
