18

C      -0.21293054     -0.60046776      2.44035153
O       0.13122818     -0.10962117      1.15212274
C      -0.52784852     -0.75701726      0.09976622
C      -0.08847219     -0.04663921     -1.17309757
C      -0.65783946      1.34574800     -1.32573548
N       1.41802975      0.05337411     -1.06764904
H       0.37275992     -0.03620562      3.16283074
H       0.02448807     -1.66559403      2.52727421
H      -1.27796063     -0.44710553      2.63654310
H      -0.26608209     -1.82561018      0.06943863
H      -1.61828273     -0.68413721      0.18954304
H      -0.30766154     -0.66011317     -2.04849190
H      -0.44160800      1.96206277     -0.45099365
H      -1.74120511      1.27766941     -1.42931935
H      -0.27748663      1.84213000     -2.22173262
H       1.60876948      0.33081581     -0.09239198
H       1.80456244      0.74411156     -1.71069426
H       1.87858660     -0.84205353     -1.23513037
