18

 C     -0.23323358     -0.58795571      2.39287146
 O      0.11092514     -0.09710912      1.10464267
 C     -0.54815156     -0.74450521      0.05228615
 C     -0.10877522     -0.03412716     -1.22057764
 C     -0.67814249      1.35826005     -1.37321555
 N      1.39772672      0.06588616     -1.11512910
 H      0.35245688     -0.02369357      3.11535067
 H      0.00418503     -1.65308198      2.47979415
 H     -1.29826367     -0.43459348      2.58906303
 H     -0.28638513     -1.81309813      0.02195857
 H     -1.63858577     -0.67162516      0.14206297
 H     -0.32796457     -0.64760113     -2.09597197
 H     -0.46191104      1.97457482     -0.49847372
 H     -1.76150814      1.29018146     -1.47679942
 H     -0.29778966      1.85464204     -2.26921269
 H      1.58846644      0.34332786     -0.13987204
 H      1.78425941      0.75662361     -1.75817432
 H      1.85828357     -0.82954148     -1.28261043
