16

 N      3.12638546     -1.20431386     -0.11287218
 C      2.45264947      0.11868871      0.16155937
 C      2.95900545      1.18266263     -0.77661723
 C      2.56707775      2.58967154     -0.29126016
 O      3.87315151      2.78854844      0.26065851
 C      4.38332336      1.67585155     -0.46665130
 H      2.82761323     -1.92817088      0.54406991
 H      4.14203557     -1.10965897     -0.03419909
 H      2.91977814     -1.53442923     -1.05827374
 H      1.37985362     -0.05262386      0.06035364
 H      2.67828486      0.36936649      1.19991178
 H      2.72764736      0.94777590     -1.81826623
 H      1.77895165      2.66228438      0.46294134
 H      2.35561508      3.28421338     -1.10929780
 H      4.94098757      1.98201457     -1.35789147
 H      5.03211011      1.04332321      0.15476287
