16

N       3.21928824     -0.81341261     -0.05575236
C       2.54555225      0.50958996      0.21867919
C       3.05190823      1.57356388     -0.71949741
C       2.65998053      2.98057279     -0.23414034
O       3.96605429      3.17944969      0.31777833
C       4.47622614      2.06675280     -0.40953148
H       2.92051601     -1.53726963      0.60118973
H       4.23493835     -0.71875772      0.02292073
H       3.01268092     -1.14352798     -1.00115392
H       1.47275640      0.33827739      0.11747346
H       2.77118764      0.76026774      1.25703160
H       2.82055014      1.33867715     -1.76114641
H       1.87185443      3.05318563      0.52006116
H       2.44851786      3.67511463     -1.05217798
H       5.03389035      2.37291582     -1.30077165
H       5.12501289      1.43422446      0.21188269
