14

O      -0.00243304     -0.00160240      2.53705071
C      -0.02543101      0.01827541      1.35117903
C      -1.18586908      0.39607380      0.44526983
C      -0.77717214     -0.07609461     -0.93265091
N       0.74030270      0.01203349     -0.90985150
C       1.17331787     -0.36015193      0.47090912
H      -2.11081332     -0.05910957      0.79865817
H      -1.31886341      1.48239439      0.48980405
H      -1.02325659     -1.12520258     -1.09967227
H      -1.15007980      0.51643084     -1.76576419
H       1.02961854      0.96881418     -1.11965250
H       1.15985364     -0.58309932     -1.62443557
H       2.08585447      0.16193793      0.75389742
H       1.34138783     -1.43784030      0.51515693
