16

O       3.27452862     -1.14212373     -0.21994108
C       2.41944720     -0.04529550     -0.01777477
C       2.58040084      0.82081674     -1.24590337
C       2.38165098      2.33072738     -1.04990309
C       3.90839478      2.47454148     -0.98137252
N       4.06807690      1.05179938     -1.47892962
H       3.15500181     -1.80091288      0.47033346
H       1.36522344     -0.33162024      0.06441456
H       2.68922955      0.51632813      0.88774142
H       2.12465973      0.35379855     -2.11760988
H       1.83353694      2.62211263     -0.15636412
H       1.94236182      2.82425253     -1.91502510
H       4.38920149      3.19637017     -1.63696737
H       4.31957603      2.55478322      0.02232345
H       4.33816331      0.99150443     -2.45868529
H       4.65526655      0.40770436     -0.94258733
