14

 O      2.88314956      0.54733836      0.90158457
 C      2.35254939     -0.20381182      0.14785640
 C      2.94669537     -0.51073309     -1.22286784
 C      4.45853609     -0.32571224     -1.36008300
 C      4.60882254     -1.85118542     -1.33664943
 N      3.09469406     -2.01369177     -1.44210970
 H      1.39004468     -0.70684735      0.38029688
 H      2.30638566     -0.06819276     -1.98984256
 H      4.90911965      0.20947076     -0.52666762
 H      4.76288972      0.13304440     -2.29824653
 H      5.11970905     -2.33354677     -2.16619857
 H      4.94824333     -2.26895014     -0.39089888
 H      2.78385889     -2.32483064     -2.36171624
 H      2.65772481     -2.61768128     -0.74352244
