16

O       2.32290236     -1.21567017      0.79256677
C       2.43411507     -0.08368236     -0.02655053
C       2.97141847      1.00306267      0.87104364
C       2.85735533      2.46197607      0.40815461
N       2.30976319      2.84608775      1.77112285
C       2.08934163      1.37055369      2.07289606
H       2.07287033     -1.98180716      0.26878325
H       1.45786868      0.22072989     -0.43508058
H       3.11677177     -0.24172469     -0.87100274
H       3.98532904      0.75270330      1.18878878
H       2.08429261      2.63128501     -0.34076298
H       3.75898806      3.01241563      0.15031553
H       1.48673339      3.44659328      1.78325009
H       3.01668316      3.26704875      2.37222175
H       2.40932293      1.09448621      3.07404369
H       1.03600931      1.13216348      1.93198848
