16

 O      2.28853002     -1.04712761      0.74926404
 C      2.39974273      0.08486020     -0.06985326
 C      2.93704613      1.17160523      0.82774091
 C      2.82298299      2.63051863      0.36485187
 N      2.27539085      3.01463031      1.72782011
 C      2.05496929      1.53909625      2.02959333
 H      2.03849799     -1.81326460      0.22548052
 H      1.42349634      0.38927245     -0.47838331
 H      3.08239943     -0.07318213     -0.91430547
 H      3.95095670      0.92124586      1.14548605
 H      2.04992027      2.79982757     -0.38406572
 H      3.72461572      3.18095819      0.10701279
 H      1.45236105      3.61513584      1.73994735
 H      2.98231082      3.43559131      2.32891901
 H      2.37495059      1.26302877      3.03074096
 H      1.00163697      1.30070604      1.88868575
