14

O       1.36933188     -1.25813284     -0.77435823
C       1.86170958     -0.39606468     -0.11889734
C       2.70029064      0.71655596     -0.71664670
C       2.33683870      2.14854052     -0.28818233
N       3.80002988      2.44232541     -0.01500433
C       4.07657832      0.95157133     -0.07052946
H       1.74127743     -0.35218001      0.98717812
H       2.74872450      0.58919590     -1.79786658
H       1.78681391      2.20266614      0.65190335
H       1.89767176      2.81845140     -1.02310263
H       4.02051740      2.92140172      0.85813078
H       4.24623383      2.95189884     -0.77733235
H       4.96936331      0.70483882     -0.63980181
H       4.15878087      0.57169649      0.94822317
