16

 O      2.88683727      1.27320836      0.12448546
 C      2.20470298      0.10778751     -0.26686487
 C      2.96684048     -1.06710956      0.32282292
 C      4.43552198     -0.97876065      0.05073847
 C      5.30067734     -2.15914787     -0.07181005
 N      4.91432693     -1.42124879     -1.30061293
 H      2.34712654      2.04760795     -0.05456405
 H      2.15782878      0.02361938     -1.36322539
 H      1.17575892      0.08351646      0.10664537
 H      2.55414478     -2.01549620     -0.03598894
 H      2.85787530     -1.06103536      1.41160508
 H      4.90522761     -0.04581734      0.34130947
 H      6.35302551     -2.08900306      0.17126465
 H      4.86294934     -3.14763483     -0.00577667
 H      4.24394177     -1.85780427     -1.92386791
 H      5.61871823     -0.86663543     -1.77386810
