14

O       2.38128732     -2.25268841     -3.24504307
C       2.22051529     -1.11090767     -2.92623792
C       3.10793076     -0.43456270     -1.89566206
C       4.08242412     -1.43770963     -1.36250576
C       5.38406121     -1.68121768     -1.99220513
N       5.32814546     -0.92649755     -0.71152883
H       1.42317942     -0.47973449     -3.35812504
H       2.47800912     -0.02419816     -1.09901394
H       3.60613835      0.41638396     -2.37648906
H       3.65631695     -2.26762780     -0.81013052
H       5.68689301     -1.07774776     -2.83885754
H       5.84670638     -2.65609069     -1.91170232
H       5.51178321      0.07082403     -0.73624367
H       5.65922407     -1.38345312      0.13146054
