14

 O      2.65717529     -2.03436930     -3.01800911
 C      2.49640326     -0.89258856     -2.69920396
 C      3.38381873     -0.21624359     -1.66862810
 C      4.35831209     -1.21939052     -1.13547180
 C      5.65994918     -1.46289857     -1.76517117
 N      5.60403343     -0.70817845     -0.48449487
 H      1.69906739     -0.26141538     -3.13109108
 H      2.75389709      0.19412094     -0.87197998
 H      3.88202632      0.63470307     -2.14945509
 H      3.93220492     -2.04930870     -0.58309656
 H      5.96278098     -0.85942865     -2.61182358
 H      6.12259435     -2.43777158     -1.68466836
 H      5.78767118      0.28914313     -0.50920971
 H      5.93511204     -1.16513402      0.35849450
