14

O       1.54351019      0.40188598      3.02672952
C       2.48444773     -0.21635595      2.64626964
C       2.74346417     -0.40300759      1.15461217
N       4.15404460     -0.71429414      0.86873975
C       4.76324957     -0.40796377     -0.44723437
C       5.16921620      0.35922219      0.73909352
H       3.19948481     -0.70565877      3.34255589
H       2.12950749     -1.22872569      0.78235547
H       2.46455568      0.50421812      0.61791154
H       4.48931476     -1.57027384      1.30171900
H       5.41485018     -1.18188806     -0.83273474
H       4.07211798      0.03207641     -1.15482293
H       4.76985469      1.35466313      0.88882127
H       6.11716728      0.14629164      1.21643294
