14

 O      1.88967278      0.30603270      2.70610748
 C      2.83061032     -0.31220924      2.32564760
 C      3.08962676     -0.49886088      0.83399013
 N      4.50020719     -0.81014743      0.54811771
 C      5.10941216     -0.50381706     -0.76785641
 C      5.51537879      0.26336890      0.41847148
 H      3.54564740     -0.80151206      3.02193385
 H      2.47567008     -1.32457898      0.46173343
 H      2.81071827      0.40836483      0.29728950
 H      4.83547735     -1.66612713      0.98109696
 H      5.76101277     -1.27774135     -1.15335678
 H      4.41828057     -0.06377688     -1.47544497
 H      5.11601728      1.25880984      0.56819923
 H      6.46332987      0.05043835      0.89581090
