17

 C      0.55208765      1.17879029      0.68036585
 C     -0.87403426      0.75268937      0.44619259
 C     -0.88442510      0.00652790     -0.86055418
 C      0.53579308      0.01180604     -1.36378663
 N      1.19574219      0.00685704     -0.01128684
 C      0.55701122     -1.17454373      0.66916765
 C     -0.87083777     -0.75220991      0.43910358
 H      0.84635469      2.10209983      0.18097503
 H      0.86181414      1.19779948      1.72529483
 H     -1.70819214      1.33995198      0.79788535
 H     -1.72713054      0.00761873     -1.53474294
 H      0.82886752      0.90996530     -1.90800671
 H      0.83257429     -0.88005258     -1.91626732
 H      2.21321626      0.00870131     -0.02080633
 H      0.86675627     -1.20204057      1.71390933
 H      0.85547175     -2.09166432      0.16097208
 H     -1.70280427     -1.34619726      0.78462680
