17

 C      1.73110868      0.01146276     -0.53658372
 C      0.81629385      0.77713921      0.36823517
 C      0.80592352     -0.72518705      0.37060509
 N     -0.60813258     -0.97406741     -0.07200294
 C     -0.87126415      0.01533923     -1.18300884
 C     -0.63052510      1.04532552     -0.07280261
 C     -1.36670923      0.01277072      0.82040884
 H      1.62863317      0.01036971     -1.61257869
 H      2.76430380     -0.03530035     -0.21189253
 H      1.21273989      1.34441395      1.19952519
 H      1.12871607     -1.36971127      1.17616024
 H     -0.89551178     -1.94760675     -0.16202002
 H     -1.91374583     -0.06046505     -1.48417262
 H     -0.21367800     -0.07003982     -2.04107330
 H     -0.96916882      2.07095869     -0.16762054
 H     -1.09703567     -0.06871649      1.87157305
 H     -2.43992125     -0.07549209      0.65550295
