16
1521.log
C      1.061876    0.000022   -1.639476
C     -0.410258   -0.015933   -1.335852
C     -1.042111    0.992655   -0.318755
C     -0.801276    0.124735    0.912456
N      0.000175    0.000135    2.107950
C      0.650386   -0.193076    0.787581
C      0.579052   -0.923864   -0.566427
H      1.652592    0.862132   -1.347226
H      1.365016   -0.437857   -2.584476
H     -1.061282   -0.431130   -2.097859
H     -2.095326    1.174575   -0.549131
H     -0.519067    1.950184   -0.293050
H     -1.388336   -0.783611    0.758462
H     -0.297954   -0.840924    2.593319
H      1.273123    0.688934    0.669758
H      0.616017   -1.997872   -0.700430
