17

C       1.04805450     -0.04384261     -1.60236677
C      -0.41691884     -0.09991272     -1.29134019
C      -1.05576720      0.97111687     -0.32693028
C      -0.76217755      0.12393407      0.90379005
N       0.01212956     -0.11958572      2.19124660
C       0.63956496     -0.21843624      0.80180927
C       0.61478200     -0.98564980     -0.52573878
H       1.36569924     -0.49391677     -2.53608167
H       1.61207706      0.84456582     -1.33764216
H      -1.07894454     -0.54716839     -2.02191909
H      -2.11491062      1.12626397     -0.52150482
H      -0.52910685      1.92431838     -0.35118341
H      -1.36672104     -0.77879094      0.84938114
H      -0.30596745     -0.92553849      2.72446396
H       0.43334944      0.60566751      2.76815768
H       1.30694841      0.63862607      0.77543352
H       0.68981581     -2.05887131     -0.62713091
