17

 C      1.48592181     -0.00763227     -0.89949682
 C      0.27201908     -0.87425985     -1.02698594
 C     -1.10536951     -0.23222946     -0.93970974
 C     -1.24585485      0.32667228      0.46200646
 C     -0.37789508      1.40992131      0.95900998
 N      0.02020931      0.00460232      1.19071984
 C      0.95068125     -0.71313431      0.29884120
 H      2.41880797     -0.40202333     -1.28277587
 H      1.39982603      1.06566190     -1.00447352
 H      0.35544607     -1.80496126     -1.57263184
 H     -1.25678492      0.54657269     -1.69017185
 H     -1.87430592     -0.98923127     -1.09627023
 H     -2.15654403      0.13063018      1.01608141
 H      0.26412072      1.96058713      0.28766777
 H     -0.66977453      1.93555242      1.86008231
 H     -0.02567629     -0.33453283      2.14496908
 H      1.51092874     -1.48019427      0.81507281
