16
1523.log
C      1.364208    0.000077   -0.538015
C      0.252818    0.998814   -0.772249
C     -1.045696    0.220109   -0.695917
C     -0.679398   -1.222996   -0.425389
C      0.566036   -0.914479    0.410724
N     -0.000125   -0.000138    1.415883
C     -0.562023    0.978352    0.502706
H      2.240335    0.440904   -0.052190
H      1.685939   -0.514492   -1.447057
H      0.361030    1.883841   -1.383539
H     -1.928132    0.519062   -1.243768
H     -0.446581   -1.788794   -1.330179
H     -1.436978   -1.752287    0.155420
H      1.091318   -1.760695    0.849197
H      0.748529    0.420681    1.959338
H     -1.073383    1.840290    0.907029
