17

C      -1.75079877      0.65377842      0.00000000
C      -0.48572715      0.86656664      0.76280400
C      -0.48572715      0.86656664     -0.76280400
C       0.42432121     -0.32354642     -1.01187500
C       0.01068492     -1.40106542      0.00000000
C       0.42432121     -0.32354642      1.01187500
N       1.54954465      0.00846940     -0.00000000
H      -2.42401052      1.50194588     -0.00000000
H      -2.26129719     -0.29892025      0.00000000
H      -0.34377376      1.76448978      1.35001700
H      -0.34377376      1.76448978     -1.35001700
H       0.75830685     -0.54457270     -2.02260000
H      -1.01314817     -1.75546059      0.00000000
H       0.69182125     -2.25237271      0.00000000
H       0.75830685     -0.54457270      2.02260000
H       2.31913509     -0.66220392     -0.00000000
H       1.90128128      0.96655273     -0.00000000
