16
1528.log
C     -1.733957    0.630724   -0.000000
C     -0.455674    0.825775    0.754876
C     -0.455674    0.825775   -0.754876
C      0.477773   -0.360956   -0.985757
C      0.007130   -1.441855    0.000000
C      0.477773   -0.360956    0.985757
N      1.571233   -0.000496   -0.000000
H     -2.403614    1.483563   -0.000000
H     -2.251689   -0.319816   -0.000000
H     -0.288347    1.731939    1.321618
H     -0.288347    1.731939   -1.321618
H      0.771654   -0.583944   -2.011277
H      0.691956   -2.290727    0.000000
H     -1.022628   -1.803766    0.000000
H      0.771654   -0.583944    2.011277
H      2.243964   -0.769560   -0.000000
