17

C      -1.33295231      0.73504189      0.75694315
C      -1.31158988     -0.35741000     -0.25371217
N      -0.24610461     -1.39898989     -0.11925697
C       1.08750716     -0.78312372     -0.40283105
C       1.60322599      0.21402444      0.57444131
C       0.85825389      0.67798137     -0.63792952
C      -0.62538579      0.94124949     -0.54571204
H      -2.29228592      1.22010427      0.88673523
H      -0.76813643      0.63934788      1.67509045
H      -2.20925814     -0.72130561     -0.73493235
H      -0.26920101     -1.85040874      0.79789519
H      -0.41894136     -2.13139933     -0.80901123
H       1.74136114     -1.42233305     -0.98048803
H       1.15441858      0.29819534      1.55559165
H       2.67890097      0.33797968      0.57774490
H       1.39897524      1.18875532     -1.42300087
H      -1.04836252      1.62302924     -1.27088353
