19

C       1.03504882     -0.03654734     -1.73961974
C      -0.15448418      0.78112056     -2.13197480
C      -0.33213523     -0.42559963     -1.26253037
C      -0.74609673     -0.28824500      0.16976226
C      -0.07137802     -1.19990504      1.21283571
N       0.03634748     -0.01914865      2.16066199
C      -0.24437287      0.91034405      0.99383727
H       1.74167941      0.40133996     -1.04245181
H       1.50097537     -0.66407744     -2.48787856
H      -0.50902060      0.72892686     -3.15262565
H      -0.26306323      1.76113323     -1.68048434
H      -0.77116821     -1.29231035     -1.74552729
H      -1.83431598     -0.36265219      0.25091451
H       0.93328241     -1.50508301      0.92325013
H      -0.62076314     -2.03567807      1.64015493
H      -0.70944135     -0.00734728      2.85474499
H       0.92354103      0.10460257      2.64606155
H      -0.93680091      1.70884577      1.24933078
H       0.70160608      1.32457642      0.64859972
