18
1535.log
C      1.079002   -0.000576   -1.721894
C     -0.127302    0.809274   -2.092649
C     -0.272144   -0.390182   -1.206555
C     -0.656861   -0.244129    0.234308
C     -0.002535   -1.146782    1.298121
N      0.000894    0.000297    2.219820
C     -0.139155    0.929470    1.087240
H      1.788873    0.440240   -1.032354
H      1.531013   -0.624382   -2.483060
H     -0.496678    0.754302   -3.109031
H     -0.231701    1.784868   -1.631871
H     -0.706206   -1.265248   -1.682453
H     -1.745249   -0.299350    0.325463
H      0.997284   -1.470547    0.978112
H     -0.564370   -2.016844    1.649129
H      0.838929    0.113175    2.775093
H      0.815629    1.325391    0.714885
H     -0.820525    1.766436    1.262060
