18
1536.log
C      0.806580    0.001956    0.113103
C      0.385332    0.446812   -1.262469
C      0.754156   -0.366536   -2.463490
C     -0.674056   -0.301971   -2.010027
C     -0.060102    0.558709    1.209119
C     -1.197602   -0.213931    1.739464
N      0.000177   -0.004239    2.552947
H      1.846861    0.303489    0.290202
H      0.786491   -1.094568    0.162199
H      0.390206    1.523664   -1.405234
H      1.295473   -1.290612   -2.296243
H      1.027511    0.150943   -3.374621
H     -1.093783   -1.182265   -1.537462
H     -1.378570    0.258362   -2.611829
H     -0.147147    1.643306    1.209358
H     -1.372254   -1.199237    1.317157
H     -2.088582    0.291291    2.096308
H      0.572999   -0.842651    2.548789
