18
1537.log
C      0.799412   -0.001584    0.136401
C      0.251974   -0.952055   -0.887350
C     -0.758316   -0.491590   -1.893174
C      0.644256   -0.798769   -2.323305
N      0.001602   -0.000130    1.346319
C      0.143641    1.158676    2.199039
C     -1.085545    0.952488    1.400730
H      0.873404    1.009073   -0.306919
H      1.815508   -0.303236    0.414532
H      0.135653   -1.967892   -0.524408
H     -1.057951    0.549756   -1.869574
H     -1.546529   -1.175935   -2.180748
H      1.284522    0.036153   -2.584514
H      0.820529   -1.694081   -2.905939
H      0.817179    1.948165    1.872066
H      0.146446    0.966830    3.266651
H     -1.230703    1.604332    0.542411
H     -1.998691    0.608088    1.873679
