19

 C     -0.13923878      0.46569918     -0.58424051
 C     -0.82585577     -0.78106557     -0.11276490
 C      0.65020748     -0.76403554     -0.30888746
 N      1.52032842     -0.80170263      0.88699184
 C      2.90537826     -0.33537516      0.65713516
 C      3.22061276      1.10435026      0.85489983
 C      3.71735160      0.08258447      1.83336904
 H     -0.23853811      0.76680178     -1.61855495
 H     -0.06898742      1.29242359      0.11316678
 H     -1.40949217     -1.36324224     -0.81332665
 H     -1.21354772     -0.78683472      0.90018811
 H      1.09728892     -1.31852851     -1.12372814
 H      1.54596864     -1.75842679      1.25167433
 H      1.09649138     -0.23333558      1.62422304
 H      3.36455047     -0.88762036     -0.15249007
 H      2.42807152      1.76709899      1.18265702
 H      3.91686583      1.55661789      0.16134696
 H      4.76436416     -0.18964088      1.83135931
 H      3.25564243      0.06281974      2.81461705
