19

C      -1.25605010     -0.78921973     -0.48262480
C      -1.23983162      0.76231714     -0.49308151
C      -0.03612124      1.10013964      0.37867141
C      -0.01049095     -0.02473771      1.40181616
C      -0.01458851     -1.13705314      0.34791236
C       1.22865863     -0.78134209     -0.45855338
N       1.19369429      0.74606605     -0.44422349
H      -1.22236918     -1.22127380     -1.48372507
H      -2.15634342     -1.16795385      0.00129917
H      -2.13704583      1.18568790     -0.04102179
H      -1.16491448      1.19457974     -1.49451898
H       0.04468334      2.12930977      0.72381394
H      -0.90692960     -0.01878463      2.02132219
H       0.86778231     -0.01780735      2.05180919
H       0.01888825     -2.15799352      0.72342223
H       2.15495201     -1.10058387      0.01693702
H       1.21514118     -1.12627798     -1.49124032
H       1.13376322      1.13736916     -1.38340965
H       2.03735041      1.12282285     -0.01433999
