19

 C     -1.24994888     -0.78020004     -0.52462905
 C     -1.23373041      0.77133683     -0.53508576
 C     -0.03002003      1.10915933      0.33666716
 C     -0.00438974     -0.01571802      1.35981191
 C     -0.00848730     -1.12803345      0.30590811
 C      1.23475985     -0.77232240     -0.50055763
 N      1.19979550      0.75508574     -0.48622774
 H     -1.21626796     -1.21225411     -1.52572932
 H     -2.15024221     -1.15893416     -0.04070508
 H     -2.13094462      1.19470759     -0.08302604
 H     -1.15881326      1.20359943     -1.53652323
 H      0.05078455      2.13832946      0.68180969
 H     -0.90082839     -0.00976494      1.97931794
 H      0.87388352     -0.00878766      2.00980494
 H      0.02498946     -2.14897383      0.68141798
 H      2.16105322     -1.09156418     -0.02506723
 H      1.22124240     -1.11725829     -1.53324457
 H      1.13986444      1.14638885     -1.42541390
 H      2.04345162      1.13184254     -0.05634424
