19

 C     -1.70012256      0.82803698      0.51636906
 C     -1.11599806     -0.25810165     -0.31648375
 C     -0.28506527     -1.34312565      0.32395351
 C      1.12759133     -1.35110177     -0.23706880
 N      1.73750612      0.04622109     -0.23721547
 C      0.86656862      1.12280681      0.38206544
 C     -0.46783418      1.11064718     -0.28832898
 H     -1.60456647      0.75947318      1.59407658
 H     -2.61766188      1.28947598      0.17700561
 H     -1.64245386     -0.52930931     -1.22408969
 H     -0.71358054     -2.33044154      0.14231477
 H     -0.25630675     -1.22508051      1.40985121
 H      1.79356555     -1.99185217      0.33987283
 H      1.13656974     -1.69161993     -1.27191700
 H      1.93036389      0.32086670     -1.19959261
 H      2.64039138      0.02641428      0.23603006
 H      0.80965499      0.89621568      1.44608881
 H      1.40305143      2.06417839      0.26107511
 H     -0.56979450      1.75054725     -1.15704217
