19

C      -1.25115553     -0.77655489     -0.49013044
C      -1.25387052      0.77445202     -0.48436354
C      -0.00570585      1.12372231      0.31994006
C       1.25833402      0.77876304     -0.46109474
C       1.26104901     -0.77224387     -0.46686164
C      -0.00176529     -1.12742468      0.31156992
N      -0.01314130     -0.00564601      1.33194338
H      -1.19102328     -1.20100672     -1.49103172
H      -2.15048291     -1.18001252     -0.02134934
H      -2.15459875      1.17126163     -0.01260691
H      -1.19523762      1.20654295     -1.48208005
H      -0.01193033      2.09460474      0.81208742
H       1.21670937      1.21068192     -1.45973987
H       2.14880233      1.17864640      0.02725249
H       2.15291816     -1.17262775      0.01851006
H       1.22092371     -1.19686775     -1.46869154
H      -0.00458438     -2.10195582      0.79648390
H       0.81085050     -0.00644136      1.93377778
H      -0.84813190     -0.00928822      1.91841179
