19

 C      1.28414932     -0.00069941     -0.66465644
 C     -0.15358966     -0.06018902     -1.23866892
 C     -0.29747271     -1.40540775     -0.49218306
 C      0.75318517     -0.87002690      0.48157321
 N      0.02944825      0.00589601      1.48182359
 C     -0.57626544      1.24454677      0.86115966
 C     -1.04423794      0.97876232     -0.56427907
 H      1.97544342     -0.59215656     -1.26384705
 H      1.75020781      0.96080167     -0.44410670
 H     -0.27925087     -0.05976093     -2.31936731
 H     -1.27794801     -1.68745151     -0.09815476
 H      0.11067009     -2.24009282     -1.06092633
 H      1.40374997     -1.54016449      1.04267411
 H      0.66979139      0.29078891      2.22358946
 H     -0.69630604     -0.55718772      1.92813180
 H      0.21414398      1.99280434      0.87559420
 H     -1.37255848      1.58670212      1.52150535
 H     -1.01155517      1.93141457     -1.09775422
 H     -2.08372500      0.64191395     -0.58231322
