18
1545.log
C      1.286804    0.000806   -0.688712
C     -0.153265   -0.068535   -1.249070
C     -0.288189   -1.406370   -0.495366
C      0.722468   -0.818012    0.504043
N     -0.000027   -0.000449    1.470826
C     -0.535119    1.221674    0.872853
C     -1.037455    0.963768   -0.549805
H      1.737824    0.977168   -0.496071
H      1.974050   -0.600591   -1.286611
H     -0.295885   -0.062394   -2.331703
H      0.136706   -2.238505   -1.060654
H     -1.268853   -1.676704   -0.098226
H      1.386729   -1.500313    1.037183
H      0.606781    0.239710    2.243376
H      0.228393    2.011724    0.823411
H     -1.342309    1.607671    1.501570
H     -1.039998    1.911317   -1.096777
H     -2.069163    0.597589   -0.539626
