19

 C     -1.78277999      0.81553707      0.27792008
 C     -1.76113203     -0.62091812     -0.29839211
 N     -0.27731953     -0.64865019      0.05136634
 C      1.01675966     -1.06786165     -0.53827629
 C      1.94382331      0.07085064     -0.00983738
 C      1.03345892      1.21035636      0.56210765
 C     -0.28169335      0.83658990     -0.06938028
 H     -1.98389457      0.82250842      1.35068091
 H     -2.41370116      1.54342337     -0.22362973
 H     -2.32944703     -1.41119134      0.18539370
 H     -1.87577581     -0.65881775     -1.38026662
 H     -0.23782161     -0.85988806      1.05088421
 H      1.29676777     -2.06500171     -0.20425892
 H      0.91714958     -1.06438342     -1.62274008
 H      2.56266457      0.44122748     -0.82612448
 H      2.61787921     -0.30633874      0.75817232
 H      0.98464708      1.17423838      1.65319914
 H      1.38725811      2.19812145      0.27344432
 H     -0.21479952      1.02507833     -1.14700878
