19

 C     -0.83591331      0.02793133     -1.16950807
 C     -0.63765595      1.08830944     -0.07078571
 C     -1.18328222      0.01950854      0.88639048
 N     -0.64329495     -1.00866206     -0.08007049
 C      0.80687963     -1.27233171      0.19723681
 C      1.62652573     -0.00687475     -0.05306389
 C      0.84819808      1.29253721      0.20975388
 H     -1.86073569     -0.03569740     -1.53206091
 H     -0.12866541     -0.05869569     -1.99143166
 H     -1.20022331      2.01414952     -0.15669956
 H     -0.76488939     -0.06990395      1.88821142
 H     -2.27048145     -0.04579057      0.90757115
 H     -1.16476087     -1.87913164     -0.16672833
 H      1.12436869     -2.08769160     -0.45392632
 H      0.85865256     -1.61868569      1.23084717
 H      1.96822294     -0.01551129     -1.08947455
 H      2.52996107     -0.05262124      0.55567356
 H      0.96686204      1.62984664      1.24247195
 H      1.24967042      2.08398565     -0.42541990
