19

C      -0.90642750      0.04774522     -1.17720583
C      -0.70817014      1.10812333     -0.07848347
C      -1.25379641      0.03932243      0.87869272
N      -0.71380914     -0.98884817     -0.08776825
C       0.73636544     -1.25251783      0.18953905
C       1.55601154      0.01293913     -0.06076165
C       0.77768389      1.31235109      0.20205612
H      -1.93124988     -0.01588351     -1.53975867
H      -0.19917960     -0.03888180     -1.99912942
H      -1.27073750      2.03396341     -0.16439732
H      -0.83540358     -0.05009006      1.88051366
H      -2.34099564     -0.02597668      0.89987339
H      -1.23527506     -1.85931775     -0.17442609
H       1.05385450     -2.06787772     -0.46162408
H       0.78813837     -1.59887181      1.22314941
H       1.89770875      0.00430259     -1.09717231
H       2.45944688     -0.03280736      0.54797580
H       0.89634785      1.64966052      1.23477419
H       1.17915623      2.10379953     -0.43311766
