19

C       0.77840710     -0.00746926     -1.84169641
C      -0.77887211      0.10044213     -1.83884302
C      -0.63570403      0.42341657     -0.33576399
C      -1.27238620      0.03311224      0.96742122
N       0.00111316     -0.03183306      1.85608141
C       1.27396443     -0.05905889      0.96454127
C       0.63632799     -0.39382291     -0.35354301
H       1.24331698      0.96934662     -1.98241076
H       1.24355015     -0.73655795     -2.50091638
H      -1.24448356      0.85679229     -2.46625018
H      -1.24389934     -0.86954392     -2.02046829
H      -0.35787250      1.48358605     -0.27510132
H      -1.95918695      0.74209013      1.42761018
H      -1.71509440     -0.96222987      0.96096301
H      -0.02815378     -0.85905300      2.44968883
H       0.03082486      0.76950111      2.48417369
H       1.71668316      0.93567029      0.99992699
H       1.96108899     -0.78688243      1.39378762
H       0.35852433     -1.45561472     -0.33763887
