19

 C      0.77842877     -0.00873023     -1.78218376
 C     -0.77885044      0.09918116     -1.77933037
 C     -0.63568236      0.42215560     -0.27625134
 C     -1.27236454      0.03185126      1.02693387
 N      0.00113482     -0.03309404      1.91559406
 C      1.27398609     -0.06031986      1.02405392
 C      0.63634966     -0.39508388     -0.29403036
 H      1.24333865      0.96808565     -1.92289811
 H      1.24357182     -0.73781892     -2.44140373
 H     -1.24446189      0.85553132     -2.40673753
 H     -1.24387767     -0.87080489     -1.96095564
 H     -0.35785084      1.48232508     -0.21558867
 H     -1.95916529      0.74082915      1.48712283
 H     -1.71507273     -0.96349085      1.02047565
 H     -0.02813212     -0.86031398      2.50920148
 H      0.03084652      0.76824013      2.54368634
 H      1.71670482      0.93440932      1.05943964
 H      1.96111066     -0.78814340      1.45330027
 H      0.35854600     -1.45687569     -0.27812622
