17

 C     -0.46772929     -1.23486017      0.77373823
 C     -0.46511090     -1.23603651     -0.77398840
 C      0.30107923      0.05777180     -1.11794984
 N      1.32047970      0.05165249     -0.00042970
 C      0.30185256      0.05762861      1.11805034
 C     -0.53107257      1.22982180      0.66528624
 C     -0.53173373      1.22941895     -0.66470685
 H      0.04059711     -2.11268222      1.17660215
 H     -1.46577276     -1.20380689      1.20663734
 H      0.04907480     -2.11209913     -1.17359898
 H     -1.46152298     -1.21104371     -1.21016908
 H      0.76408550      0.10731853     -2.10033792
 H      1.89489053      0.89599409     -0.00035459
 H      1.91649134     -0.77799469     -0.00064409
 H      0.76569155      0.10680371      2.10031757
 H     -1.09484091      1.86295293      1.33593536
 H     -1.09655563      1.86177479     -1.33497230
