19

 C      1.31912045      0.00030695      1.52275701
 N     -0.00723920      0.00394518      2.18449610
 C      0.23395683      0.79671504      0.93177044
 C     -0.52733319      0.38371904     -0.28625534
 C      0.14702541      0.61512754     -1.65778559
 C     -0.52766011     -0.68242632     -2.13941828
 C     -0.70105219     -1.10400944     -0.66504332
 H      1.58257377     -0.95491328      1.08782755
 H      2.09571479      0.49187152      2.09396811
 H     -0.11046848      0.48282670      3.07187953
 H     -0.57590828     -0.83129187      2.08859589
 H      0.25998680      1.86105043      1.14521902
 H     -1.50196074      0.87895082     -0.26470875
 H      1.23196204      0.50138545     -1.59326632
 H     -0.08086146      1.54510657     -2.17632904
 H     -1.49016547     -0.48391179     -2.61154163
 H      0.05032182     -1.34323171     -2.78211727
 H     -1.63365127     -1.59188094     -0.37879569
 H      0.13895849     -1.72874301     -0.34651754
