19

C       1.31518287      0.06323931      1.54792058
N      -0.01117678      0.06687754      2.20965967
C       0.23001925      0.85964740      0.95693401
C      -0.53127077      0.44665140     -0.26109177
C       0.14308783      0.67805990     -1.63262202
C      -0.53159769     -0.61949396     -2.11425471
C      -0.70498977     -1.04107708     -0.63987975
H       1.57863619     -0.89198092      1.11299112
H       2.09177721      0.55480388      2.11913168
H      -0.11440606      0.54575906      3.09704310
H      -0.57984586     -0.76835951      2.11375946
H       0.25604922      1.92398279      1.17038259
H      -1.50589832      0.94188318     -0.23954518
H       1.22802446      0.56431781     -1.56810275
H      -0.08479904      1.60803893     -2.15116547
H      -1.49410305     -0.42097943     -2.58637806
H       0.04638424     -1.28029935     -2.75695370
H      -1.63758885     -1.52894858     -0.35363212
H       0.13502091     -1.66581065     -0.32135397
