18
1563.log
C      1.385127   -0.000072    1.438238
N      0.000049    0.000219    1.912625
C      0.267883   -0.000172    0.476933
C     -0.081241    1.222489   -0.367091
C     -0.412964    0.656079   -1.747434
C     -1.024654   -0.706830   -1.429752
C     -0.123516   -1.238940   -0.317727
H      1.932689   -0.917945    1.631045
H      1.971508    0.908562    1.541264
H     -0.259157    0.934210    2.215116
H      0.717134    1.967809   -0.385938
H     -0.971722    1.705950    0.052010
H      0.505972    0.519765   -2.327543
H     -1.072428    1.305465   -2.326972
H     -1.078109   -1.369082   -2.296239
H     -2.045089   -0.573494   -1.054805
H      0.771100   -1.695733   -0.754362
H     -0.598975   -1.982785    0.323192
