19

 C      1.34754327     -0.02568665      1.50450018
 N     -0.08706876      0.01803388      1.87785777
 C      0.34926754     -0.00554078      0.42764933
 C      0.01809657      1.22948124     -0.39973748
 C     -0.52035926      0.66462565     -1.72256830
 C     -1.06750787     -0.71261989     -1.35525262
 C     -0.02928749     -1.23552044     -0.36665688
 H      1.88994459      0.87829088      1.75362475
 H      1.83833121     -0.95551626      1.76588303
 H     -0.45119325      0.88457407      2.25850168
 H     -0.50133819     -0.81883652      2.27308661
 H     -0.74961343      1.82456568      0.10399539
 H      0.89139163      1.87035675     -0.52880831
 H      0.29738969      0.55963346     -2.43995579
 H     -1.26555621      1.31870014     -2.17382746
 H     -2.04459078     -0.62164902     -0.87034377
 H     -1.19047872     -1.36912751     -2.21594827
 H     -0.35965315     -2.07201745      0.25440759
 H      0.86614982     -1.56706480     -0.90219414
