19

C      -1.35196038      0.77296961     -0.04749612
C      -1.33763810     -0.78002382      0.02883231
C      -0.06208494     -1.46316979      0.63914746
C       0.93246422     -0.68341589     -0.15261511
N       2.25587679      0.03203672      0.03862541
C       0.91396976      0.72116401      0.19436660
C      -0.07434651      1.48133317     -0.62380570
H      -2.21237528      1.07462851     -0.64803249
H      -1.52795022      1.17827337      0.95362086
H      -1.47886666     -1.18846074     -0.97650968
H      -2.20761533     -1.09877379      0.60632164
H       0.01825734     -1.28003424      1.71221486
H      -0.07086789     -2.53724891      0.45652199
H       0.85759575     -0.86357140     -1.22188880
H       2.82129016      0.13847433     -0.79757447
H       2.80081279     -0.06343398      0.88961400
H       0.80710921      0.89952459      1.26121985
H      -0.10919957      2.55498130     -0.44176142
H       0.03814471      1.30010224     -1.69430475
