17

 C      1.59970189      0.01341688     -0.25087950
 C      0.70385607      0.04336448     -1.50047775
 C     -0.63826381      0.02132148     -1.52578218
 C     -1.57992719      0.01080058     -0.31001421
 C     -0.57888089      0.44341625      0.70785589
 N     -0.03317757     -0.02592850      2.03680490
 C      0.56180051     -0.45175116      0.71436087
 H      2.43688588     -0.67391989     -0.37896903
 H      2.00134043      1.00700258     -0.03256497
 H      1.22989525      0.05105056     -2.44936802
 H     -1.12868756      0.04509284     -2.49329886
 H     -1.98879216     -0.98916790     -0.13948626
 H     -2.41219430      0.70248019     -0.44649335
 H     -0.30629400      1.49113455      0.62360414
 H      0.39271648      0.69366777      2.61272486
 H     -0.47973204     -0.76377315      2.57258725
 H      0.29317025     -1.49597476      0.58571306
