18
1568.log
C      1.273991   -0.000242    0.781547
C      1.298698    1.049849   -0.324912
C      0.156657    1.012251   -1.289398
C     -0.818499    0.112598   -1.371866
C     -0.961127   -1.128373   -0.534768
C     -1.020630   -0.911207    0.975003
N     -0.000048    0.000202    1.471120
H      2.054659    0.251981    1.504577
H      1.547873   -0.986144    0.377297
H      2.245869    0.983520   -0.878116
H      1.300038    2.040274    0.147183
H      0.126045    1.844489   -1.989722
H     -1.575153    0.266960   -2.136527
H     -0.143447   -1.817199   -0.770002
H     -1.873311   -1.657556   -0.821230
H     -0.958758   -1.906618    1.445252
H     -2.000006   -0.496843    1.239939
H      0.124076   -0.129227    2.463511
