19

 C      1.29777361      0.03561455      0.82037222
 C      1.37167331      0.95884581     -0.39049490
 C      0.13366267      1.03354148     -1.23774855
 C     -0.86499050      0.15516555     -1.30505912
 C     -0.92346710     -1.15075902     -0.55942065
 C     -1.00931923     -0.98741439      0.94988587
 N     -0.07629075      0.09008401      1.42919114
 H      1.49542949     -1.00662454      0.57762642
 H      2.00982341      0.34332581      1.58565098
 H      1.61086392      1.97093885     -0.04753503
 H      2.23032764      0.65681247     -1.00030569
 H      0.06779963      1.92264030     -1.85734241
 H     -1.69057750      0.37680376     -1.97280031
 H     -1.80056737     -1.72233837     -0.86588946
 H     -0.06336929     -1.77331382     -0.81987500
 H     -2.00809533     -0.68891596      1.27314416
 H     -0.73457904     -1.90570721      1.47031705
 H     -0.02331117      0.05996721      2.44686457
 H     -0.49199785      0.98938073      1.17201190
