17

 C      1.40500103      0.07136152      1.47330135
 C      1.06872996      0.06256068      0.03933148
 C      0.63487973      1.02040693     -1.02183177
 C     -0.71123320      0.44883833     -1.44973412
 C     -1.40671971     -0.47487362     -0.77732327
 C     -1.02474089     -1.01368930      0.58557689
 N     -0.02193092     -0.03557155      1.04901142
 H      1.85248114     -0.82489591      1.88414925
 H      1.58374152      0.98631898      2.02618544
 H      1.23585949     -0.92663883     -0.38032493
 H      0.55272823      2.05700144     -0.67749416
 H      1.32669517      1.01942629     -1.86648897
 H     -1.10434898      0.80090433     -2.39711419
 H     -2.33761509     -0.84813275     -1.18923787
 H     -1.86995072     -1.02561251      1.27654497
 H     -0.58653909     -2.01375607      0.56040677
 H     -0.47360374      0.86846120      1.15656773
