20
1571.log
C      0.754129    0.000686   -1.550898
C     -0.765310    0.092905   -1.529429
C     -1.374864    0.702411   -0.270276
C     -1.244727   -0.174497    0.968266
N      0.000656    0.002514    1.696563
C      1.242076    0.113804    0.948688
C      1.383543   -0.688767   -0.346137
H      1.174078    1.012799   -1.616302
H      1.059424   -0.512983   -2.468766
H     -1.186949   -0.912382   -1.656809
H     -1.091164    0.668858   -2.402173
H     -2.441628    0.861743   -0.454371
H     -0.950531    1.692414   -0.067727
H     -1.410477   -1.219664    0.652176
H     -2.056346    0.065733    1.663242
H      0.083187   -0.722302    2.394493
H      2.042700   -0.165064    1.639277
H      1.421152    1.170116    0.704282
H      0.971622   -1.696812   -0.214815
H      2.452576   -0.819053   -0.546462
