19

 C     -1.76308795      0.78129913      0.47007861
 C     -1.16545461     -0.34029564     -0.27409638
 C     -0.32501193     -1.40303201      0.37545429
 C      1.08481264     -1.38993285     -0.22208506
 C      1.73804781      0.00844382     -0.18538763
 C      0.82110104      1.07344728      0.39368871
 N     -0.50276403      1.00227625     -0.26953154
 H     -2.61887616      1.30349356      0.06131387
 H     -1.65118423      0.82367101      1.54643356
 H     -1.60215705     -0.57886783     -1.23830106
 H     -0.80081930     -2.37085126      0.21082402
 H     -0.29410594     -1.25399588      1.45744997
 H      1.69897561     -2.11163914      0.31672370
 H      1.03510497     -1.74541968     -1.25371680
 H      2.05022836      0.31026999     -1.18807072
 H      2.64578841      0.00225024      0.42076348
 H      0.65241887      0.93113160      1.46063333
 H      1.20829581      2.08220494      0.25083254
 H     -0.58337899      1.54147810     -1.12440382
