19

C      -1.86481965      0.81325697      0.44762807
C      -1.26718631     -0.30833780     -0.29654692
C      -0.42674363     -1.37107417      0.35300374
C       0.98308094     -1.35797501     -0.24453561
C       1.63631611      0.04040166     -0.20783818
C       0.71936934      1.10540512      0.37123817
N      -0.60449573      1.03423409     -0.29198208
H      -2.72060786      1.33545140      0.03886333
H      -1.75291593      0.85562884      1.52398302
H      -1.70388876     -0.54690999     -1.26075160
H      -0.90255100     -2.33889342      0.18837347
H      -0.39583764     -1.22203805      1.43499942
H       1.59724391     -2.07968130      0.29427315
H       0.93337326     -1.71346184     -1.27616735
H       1.94849665      0.34222783     -1.21052127
H       2.54405671      0.03420808      0.39831293
H       0.55068717      0.96308944      1.43818279
H       1.10656411      2.11416278      0.22838200
H      -0.68511070      1.57343594     -1.14685436
