18
1584.log
C     -0.897750    0.255531    1.236406
C      0.603427    0.665283    1.187090
N      1.166854    0.000536   -0.000000
C      0.603427    0.665283   -1.187090
C     -0.897750    0.255531   -1.236406
C     -0.997470   -0.641721    0.000000
C      0.408783   -1.258294    0.000000
H     -1.576364    1.109823    1.182272
H     -1.129685   -0.295309    2.151341
H      1.137321    0.310497    2.071612
H      0.757905    1.743189    1.117714
H      1.137321    0.310497   -2.071612
H      0.757905    1.743189   -1.117714
H     -1.129685   -0.295309   -2.151341
H     -1.576364    1.109823   -1.182272
H     -1.843043   -1.330038    0.000000
H      0.633479   -1.849478   -0.891100
H      0.633479   -1.849478    0.891100
