19

 C     -1.68421258      0.85598809      0.51943989
 C     -1.12538687     -0.25762158     -0.30926368
 C     -0.31731982     -1.36451907      0.33042090
 C      1.10483205     -1.37987606     -0.23556176
 C      1.78670524     -0.00574293     -0.16752491
 N      0.85634165      1.03305968      0.41089127
 C     -0.44883569      1.07616086     -0.28493473
 H     -1.59869045      0.78379028      1.59934215
 H     -2.57612111      1.36586013      0.17970488
 H     -1.64734757     -0.50818919     -1.22530171
 H     -0.78887027     -2.33068368      0.15187317
 H     -0.29893515     -1.24775043      1.41981017
 H      1.71220836     -2.11187940      0.29808295
 H      1.06939673     -1.70164471     -1.27749716
 H      2.06665678      0.36669133     -1.15251856
 H      2.67782572     -0.00707720      0.46101716
 H      0.70102719      0.83043844      1.39914754
 H      1.30229085      1.95055806      0.38095350
 H     -0.43279651      1.73764128     -1.14072501
