19

 C      1.44229703     -0.02910538     -0.53201235
 C      1.38116897      0.06206223      0.97676331
 N     -0.03020658      0.01716686      1.49984307
 C     -0.94005727     -0.97907407      0.83610747
 C     -1.54583132     -0.39677967     -0.40352214
 C     -0.95424999      0.42948332     -1.26256109
 C      0.47536518      0.88093271     -1.27970228
 H      2.47028112      0.21688374     -0.80953633
 H      1.28536702     -1.06212710     -0.85355399
 H      1.91456987     -0.76585310      1.44544252
 H      1.80729001      0.99698990      1.34619442
 H     -0.46299093      0.93476559      1.37297644
 H      0.00158051     -0.15405919      2.50565858
 H     -1.72307427     -1.21615565      1.55707131
 H     -0.35965963     -1.88970419      0.66931498
 H     -2.58413295     -0.66463721     -0.56457034
 H     -1.56892510      0.81109388     -2.07258423
 H      0.55267511      1.91983278     -0.93000906
 H      0.78837647      0.92612468     -2.32640542
