18
1597.log
C      1.448981   -0.000260   -0.560320
C      1.339403   -0.007468    0.965847
N     -0.000061   -0.000033    1.519888
C     -0.952370   -0.890923    0.889427
C     -1.520041   -0.433223   -0.429196
C     -0.942812    0.384457   -1.306110
C      0.455386    0.932136   -1.244620
H      1.291132   -1.011490   -0.949692
H      2.473738    0.275714   -0.832161
H      1.853738    0.869175    1.372088
H      1.876361   -0.881982    1.353299
H     -0.374353    0.939631    1.513596
H     -1.790139   -1.041655    1.579928
H     -0.486323   -1.879643    0.786632
H     -2.526191   -0.784370   -0.650044
H     -1.521963    0.667662   -2.181684
H      0.461267    1.917812   -0.757917
H      0.786659    1.120006   -2.270556
