17

C      -2.52641637      0.25426321      0.55827025
N      -2.15726236      0.19728556     -0.87816307
C      -1.10645116      0.15246339      0.20573428
C      -0.30184567     -1.12996032      0.28080009
C       1.06400001     -0.66398840     -0.13635204
C       1.15147263      0.66017752     -0.16639659
C      -0.14000204      1.32003873      0.22521106
H      -3.05864008     -0.62228445      0.90726146
H      -2.93773169      1.20803433      0.86573260
H      -2.35977608     -0.65534777     -1.38890942
H      -2.24744011      1.04520117     -1.42749388
H      -0.30025800     -1.50991075      1.30935625
H      -0.71461745     -1.93015492     -0.34271020
H       1.87485209     -1.35281940     -0.33270286
H       2.04526129      1.22684574     -0.39123395
H      -0.44584254      2.13857639     -0.43502732
H      -0.08540547      1.74254027      1.23556005
