17

C       1.25326788      0.04681836      0.59298597
N      -0.07114238      0.11632607      1.33246301
C      -1.14238579     -0.18517955      0.24471563
C      -0.36961209     -1.20785341     -0.57292979
C       0.79442467     -0.24201711     -0.85103030
C       0.04193899      0.98673013     -1.30466264
C      -1.11747768      1.02461376     -0.64744082
H       1.83798678     -0.76860780      1.01655155
H       1.78827061      0.98507325      0.71761364
H      -0.10813237     -0.57251533      2.08300677
H      -0.22859613      1.03356200      1.74586463
H      -2.07419111     -0.46570739      0.72962276
H      -0.91096650     -1.48399223     -1.47538481
H      -0.08735773     -2.10860974     -0.02123017
H       1.60053892     -0.59503948     -1.48902031
H       0.43243254      1.73255386     -1.98472802
H      -1.87855048      1.79260161     -0.66894567
