17

C       1.47261806     -0.25218225      0.29772914
N       0.68582281     -1.52166657      0.03270200
C      -0.36435079     -0.68354705     -0.73167699
C      -1.54954753     -0.35011725      0.10039854
C      -1.49762528      0.91491258      0.51541632
C      -0.28350645      1.65176586      0.04219548
C       0.54985863      0.55842590     -0.62545197
H       1.41042737      0.00729092      1.35303764
H       2.51326147     -0.36355260      0.00192828
H       1.18118885     -2.19524814     -0.54966593
H       0.33074466     -2.00272539      0.85817794
H      -0.57032728     -1.14466924     -1.69766413
H      -2.36205210     -1.04409251      0.27765316
H      -2.27045610      1.39146703      1.10709676
H      -0.56125174      2.44092847     -0.66278362
H       0.25025810      2.14803422      0.85897328
H       1.03307931      0.87003919     -1.54895975
