17

 C      1.61170557     -0.27254871      0.32858149
 N      0.82491032     -1.54203303      0.06355435
 C     -0.22526328     -0.70391351     -0.70082464
 C     -1.41046002     -0.37048371      0.13125090
 C     -1.35853777      0.89454612      0.54626867
 C     -0.14441894      1.63139940      0.07304783
 C      0.68894614      0.53805944     -0.59459962
 H      1.54951488     -0.01307554      1.38388999
 H      2.65234898     -0.38391906      0.03278063
 H      1.32027636     -2.21561460     -0.51881358
 H      0.46983217     -2.02309185      0.88903030
 H     -0.43123977     -1.16503570     -1.66681177
 H     -2.22296459     -1.06445897      0.30850552
 H     -2.13136859      1.37110057      1.13794911
 H     -0.42216423      2.42056201     -0.63193127
 H      0.38934561      2.12766776      0.88982563
 H      1.17216682      0.84967273     -1.51810740
