17

C       0.62151641     -1.52582373      0.33754811
N       1.21756573     -0.19052916      0.73674715
C       0.51135074      0.47286093     -0.45200627
C      -0.36793872      1.64076073     -0.05516279
C      -1.62752172      0.95181562      0.39531445
C      -1.63636715     -0.34637502      0.10596380
C      -0.37309465     -0.79020267     -0.57208572
H       1.37539644     -2.10098239     -0.19748921
H       0.24237456     -2.08745599      1.18903943
H       0.84548679      0.14725942      1.62436002
H       2.23392491     -0.13083807      0.76353737
H       1.24583382      0.65519790     -1.23331135
H      -0.54890226      2.29372552     -0.91521093
H       0.09323113      2.27512569      0.71018956
H      -2.44182299      1.48624776      0.86835493
H      -2.45754759     -1.02505342      0.30100389
H      -0.52273773     -1.23195841     -1.55693489
