19

 C     -0.82580169      1.18186654     -0.00000000
 C     -0.65637874      0.06354981      1.05485700
 C     -1.22937144     -0.90147022      0.00000000
 C     -0.65637874      0.06354981     -1.05485700
 C      0.81424060     -0.24109715     -1.27383700
 N      1.57459243      0.05062238     -0.00000000
 C      0.81424060     -0.24109715      1.27383700
 H     -1.84707254      1.55868225     -0.00000000
 H     -0.15119249      2.04436498     -0.00000000
 H     -1.15978343      0.15870712      2.01628100
 H     -0.88146639     -1.93739839      0.00000000
 H     -2.31859222     -0.88873786      0.00000000
 H     -1.15978343      0.15870712     -2.01628100
 H      1.26603371      0.37909194     -2.04989600
 H      0.97841732     -1.29014545     -1.52452200
 H      1.79924613      1.04461840     -0.00000000
 H      2.46798643     -0.44122108      0.00000000
 H      0.97841732     -1.29014545      1.52452200
 H      1.26603371      0.37909194      2.04989600
