19

C      -0.90584675      1.18624082     -0.00000000
C      -0.73642380      0.06792409      1.05485700
C      -1.30941650     -0.89709594      0.00000000
C      -0.73642380      0.06792409     -1.05485700
C       0.73419554     -0.23672287     -1.27383700
N       1.49454737      0.05499666     -0.00000000
C       0.73419554     -0.23672287      1.27383700
H      -1.92711760      1.56305653     -0.00000000
H      -0.23123755      2.04873926     -0.00000000
H      -1.23982849      0.16308140      2.01628100
H      -0.96151145     -1.93302411      0.00000000
H      -2.39863728     -0.88436358      0.00000000
H      -1.23982849      0.16308140     -2.01628100
H       1.18598865      0.38346622     -2.04989600
H       0.89837226     -1.28577117     -1.52452200
H       1.71920107      1.04899268     -0.00000000
H       2.38794137     -0.43684680      0.00000000
H       0.89837226     -1.28577117      1.52452200
H       1.18598865      0.38346622      2.04989600
