17

 C      2.17630814     -0.00412859      0.21831566
 C      0.68901018     -0.10602771      0.13735153
 C      0.01242000     -1.04480521     -0.84327586
 C     -1.34227405     -0.43487891     -1.05224580
 C     -1.48629453      0.71776445     -0.39922450
 C     -0.26002830      1.00695307      0.38113139
 N     -0.03975443     -0.03130307      1.45335456
 H      2.62191843     -0.96911701      0.46747750
 H      2.49978164      0.73679747      0.95253664
 H      2.56304543      0.30524968     -0.75412893
 H      0.58744416     -1.06729062     -1.77499219
 H     -0.02164542     -2.07825551     -0.48430922
 H     -2.09966072     -0.89856861     -1.67129855
 H     -2.35206615      1.36521658     -0.40242574
 H      0.04554797      2.00390961      0.67338986
 H      0.51318816      0.21689401      2.26702223
 H     -0.81305326     -0.66531311      1.63156540
