19

C       1.46640845     -0.22603430     -0.32978268
C       2.85050890      0.02691133      0.17570540
C       3.67710319     -1.07739912      0.69875744
N       4.00588452     -0.52033082     -0.63072587
C       5.08962495      0.49065177     -0.75110114
C       4.40318865      1.80730661     -0.40729218
C       3.27361233      1.43697599      0.56310998
H       1.20496234      0.47509209     -1.12475223
H       0.76127694     -0.07848351      0.49103076
H       1.33898097     -1.24720847     -0.69464766
H       4.43009252     -0.87870049      1.45199693
H       3.29064498     -2.08967230      0.67388505
H       3.80740185     -1.10648292     -1.43359175
H       5.48396621      0.45178020     -1.76546688
H       5.88843192      0.22410592     -0.05840787
H       3.98593391      2.25001130     -1.31411484
H       5.10134440      2.52796030      0.01720886
H       2.43125929      2.12292644      0.48032113
H       3.61261025      1.45797786      1.60065154
