19

 C      2.19366121      0.00666714      0.04780175
 C      0.70400547      0.01063153     -0.07257469
 C     -0.14749501     -1.02101952     -0.83440719
 C     -1.26228910      0.02953466     -0.63890139
 C     -0.14760061      1.09094205     -0.76354648
 C     -1.47049809     -0.02094840      0.86540614
 N     -0.00687686     -0.03488344      1.28291284
 H      2.55902682     -0.89896757      0.53924410
 H      2.55893800      0.87736086      0.59884362
 H      2.63424349      0.04013811     -0.94912427
 H     -0.27234273     -2.01966706     -0.40809356
 H      0.17618477     -1.09475152     -1.87079134
 H     -2.16252543      0.04985162     -1.24577801
 H      0.17606833      1.23400805     -1.79265661
 H     -0.27254665      2.05875595     -0.27125397
 H     -1.95769153     -0.92489991      1.22754792
 H     -1.95778060      0.85664759      1.28732255
 H      0.24069501      0.76845461      1.85965806
 H      0.24077719     -0.87504857      1.80451511
