17

 C      0.97521609      0.16599496     -0.46423138
 C      2.21027086      0.04298795      0.36140687
 C      2.72430711     -1.27697624      1.00781017
 C      4.06507498     -0.51012131      0.97219658
 N      3.59300060      0.05409324     -0.37224523
 C      3.76525264      0.68997736      1.85545815
 C      2.55202872      1.05541304      1.45209286
 H      0.90600001     -0.62079052     -1.21718733
 H      0.91553696      1.13946320     -0.95520784
 H      0.10791580      0.07245886      0.19339999
 H      2.68237896     -2.14008827      0.33779732
 H      2.33116825     -1.51946223      1.99031214
 H      5.04307431     -0.98186430      0.97620093
 H      3.96419559      0.96588707     -0.64330647
 H      3.64907358     -0.61274162     -1.14439557
 H      4.41558673      1.09905268      2.61406686
 H      1.90829793      1.85783437      1.78210543
