19

C       1.53887855     -0.33752408     -0.40041231
C       2.94555815     -0.02834573      0.02207627
C       3.81124298     -1.08438964      0.64378520
C       4.13453354     -0.56906104     -0.71735915
N       5.17658910      0.49425835     -0.75689069
C       4.48480768      1.79873726     -0.42488548
C       3.29681010      1.39965531      0.43992048
H       1.21082638      0.32706113     -1.20309418
H       0.85532627     -0.21364403      0.44202328
H       1.44748125     -1.36676828     -0.75150463
H       4.45839698     -0.81160700      1.47202604
H       3.43168557     -2.09774396      0.69076971
H       4.09332822     -1.18498737     -1.60551209
H       5.61791259      0.53917317     -1.67523794
H       5.92140095      0.29466816     -0.08699638
H       4.15918741      2.21741371     -1.37687034
H       5.19913609      2.47850632      0.03826350
H       2.46318905      2.07708725      0.25464425
H       3.53510985      1.46099435      1.50370318
