19

 C      1.42899628     -0.13932501     -0.33776908
 C      2.82244598      0.10416350      0.16794515
 C      3.62953287     -0.99960535      0.77471818
 C      4.05530144     -0.42357598     -0.54022401
 C      5.11746644      0.64223211     -0.51552737
 N      4.34794724      1.90878202     -0.20787152
 C      3.17073877      1.50073473      0.64676464
 H      1.15407308      0.56518508     -1.12753647
 H      0.69865621     -0.04620267      0.46945730
 H      1.34104920     -1.14753494     -0.74439649
 H      4.24033490     -0.78927600      1.64646797
 H      3.19505392     -1.99123803      0.76262255
 H      3.95185942     -1.01411212     -1.44124270
 H      5.64076133      0.77012464     -1.46198882
 H      5.85254187      0.51385897      0.28048118
 H      4.00064741      2.30381398     -1.08227260
 H      4.92674586      2.62424572      0.23463504
 H      2.36588889      2.22042532      0.50085123
 H      3.49933595      1.54052468      1.68612340
