19

C      -0.33258678     -2.20234787      0.00000000
C      -0.61040797     -0.71574736      0.00000000
C       0.17079965      0.15651743      1.01122800
C      -0.37505281      1.55703469      0.77717000
C      -0.37505281      1.55703469     -0.77717000
C       0.17079965      0.15651743     -1.01122800
N       1.31947529      0.13479339      0.00000000
H      -0.77566209     -2.67040818     -0.88053900
H      -0.77566209     -2.67040818      0.88053900
H       0.73105392     -2.46155054      0.00000000
H      -1.68347000     -0.52332457      0.00000000
H       0.42531217     -0.17147600      2.01653200
H       0.25609633      2.33448962      1.21014100
H      -1.36932639      1.65645736      1.21061000
H      -1.36932639      1.65645736     -1.21061000
H       0.25609633      2.33448962     -1.21014100
H       0.42531217     -0.17147600     -2.01653200
H       1.97457776      0.91658904      0.00000000
H       1.82519547     -0.74852695      0.00000000
