17

 C      1.92658323      0.02682318     -0.63043331
 C      1.07437439      0.72479220      0.37294296
 C     -0.35406017      1.09955144      0.19481050
 C     -1.13305828      0.45368883     -0.88514880
 C     -1.23341266     -0.85532615     -0.69460480
 C     -0.55435325     -1.29829186      0.56187394
 N      0.00653873     -0.03526364      1.10421050
 H      2.50806968      0.78305898     -1.16177282
 H      1.34899497     -0.53141683     -1.36575731
 H      2.63383764     -0.64170989     -0.13586179
 H      1.61326095      1.35071801      1.07831600
 H     -0.71666226      2.00477658      0.67023162
 H     -1.54618287      1.01710274     -1.71012157
 H     -1.73003062     -1.55820963     -1.35000972
 H      0.25038814     -2.01972301      0.39698212
 H     -1.24259431     -1.71764527      1.29964336
 H     -0.04578833      0.10492911      2.10601397
