17

C       1.72333171      0.10763473     -0.61830841
C       0.87112287      0.80560375      0.38506786
C      -0.55731169      1.18036299      0.20693540
C      -1.33630980      0.53450038     -0.87302390
C      -1.43666418     -0.77451460     -0.68247990
C      -0.75760477     -1.21748031      0.57399884
N      -0.19671279      0.04554791      1.11633540
H       2.30481816      0.86387053     -1.14964792
H       1.14574345     -0.45060528     -1.35363241
H       2.43058612     -0.56089834     -0.12373689
H       1.41000943      1.43152956      1.09044090
H      -0.91991378      2.08558813      0.68235652
H      -1.74943439      1.09791429     -1.69799667
H      -1.93328214     -1.47739808     -1.33788482
H       0.04713662     -1.93891146      0.40910702
H      -1.44584583     -1.63683372      1.31176826
H      -0.24903985      0.18574066      2.11813887
