16
1635.log
C      1.883592    0.000815   -0.657712
C      1.052163    0.677367    0.388794
C     -0.371936    1.081687    0.211869
C     -1.128618    0.459894   -0.894936
C     -1.197300   -0.856115   -0.720696
C     -0.505599   -1.247252    0.553076
N      0.000310   -0.000422    1.143256
H      2.508927    0.738749   -1.166022
H      1.282209   -0.508760   -1.411128
H      2.551768   -0.732901   -0.196340
H      1.633531    1.323682    1.043585
H     -0.721347    2.016744    0.641210
H     -1.550541    1.017031   -1.721834
H     -1.657761   -1.565591   -1.398253
H      0.314945   -1.956297    0.383685
H     -1.190191   -1.727322    1.261570
