19

 C      2.28518314      0.00240214     -0.12416507
 C      0.85182101     -0.44395467     -0.17841392
 C     -0.19450746      0.37510720     -0.97343420
 C     -0.24764057      1.29410666      0.25734353
 N     -0.02506811     -0.00011337      1.00508106
 C     -1.30310622     -0.74585429      0.75559046
 C     -1.45496981     -0.46907466     -0.76026087
 H      2.81562595     -0.47948449      0.69998012
 H      2.41672823      1.08105850     -0.04510051
 H      2.76922770     -0.32088397     -1.04806005
 H      0.78950341     -1.52754331     -0.29756008
 H      0.01766466      0.75789532     -1.96600472
 H      0.60114066      1.95799355      0.38695452
 H     -1.18252161      1.78923037      0.51545920
 H      0.33175089     -0.00435130      1.95945133
 H     -2.09179943     -0.32078191      1.37410559
 H     -1.16017164     -1.79400730      1.01269509
 H     -1.44523649     -1.38614627     -1.34838625
 H     -2.36837103      0.07848420     -0.98897942
