19

C       1.75350220      0.12790345     -0.94834384
C       0.55951569      1.03380795     -0.83605243
C      -0.86595244      0.55635979     -0.78973432
C      -1.12579996     -0.90966331     -0.49047876
C      -0.93975865     -1.05640077      1.01751177
N      -0.05284544      0.10222516      1.42214774
C      -0.24240539      1.18507889      0.41867756
H       2.64448837      0.60345166     -0.53213472
H       1.95951762     -0.08493082     -1.99887795
H       1.62627914     -0.84488278     -0.46307473
H       0.68499985      1.98021024     -1.35235697
H      -1.61210293      1.10826586     -1.34564358
H      -2.14295708     -1.18690850     -0.76498071
H      -0.45336153     -1.56660186     -1.04423505
H      -1.88061283     -0.91919244      1.54947929
H      -0.47906594     -1.98853181      1.34367604
H       0.92688599     -0.18827590      1.44790403
H      -0.28556424      0.43232972      2.35800820
H      -0.51192800      2.14114076      0.84564046
