19

 C      1.86102834      0.00708228     -0.92744837
 C      0.66704183      0.91298678     -0.81515696
 C     -0.75842630      0.43553862     -0.76883885
 C     -1.01827382     -1.03048448     -0.46958329
 C     -0.83223251     -1.17722193      1.03840724
 N      0.05468070     -0.01859600      1.44304321
 C     -0.13487925      1.06425773      0.43957303
 H      2.75201451      0.48263049     -0.51123925
 H      2.06704376     -0.20575199     -1.97798248
 H      1.73380528     -0.96570395     -0.44217926
 H      0.79252599      1.85938907     -1.33146150
 H     -1.50457679      0.98744469     -1.32474811
 H     -2.03543094     -1.30772967     -0.74408524
 H     -0.34583539     -1.68742303     -1.02333958
 H     -1.77308669     -1.04001360      1.57037476
 H     -0.37153980     -2.10935297      1.36457151
 H      1.03441213     -0.30909706      1.46879950
 H     -0.17803810      0.31150856      2.37890367
 H     -0.40440186      2.02031960      0.86653593
