19

C       1.17227568      0.05164572      0.09039616
C       2.67726011      0.04967664     -0.04753444
C       3.32179323      1.09284268     -1.00766211
C       3.01409547      0.10725076     -2.15903563
C       3.28265353     -0.93532918     -1.07085677
N       4.75782934     -0.69801130     -0.82546001
C       4.80053053      0.83282706     -0.77985498
H       0.83504209     -0.84998155      0.60500066
H       0.64842733      0.10903399     -0.86396582
H       0.86132221      0.90826017      0.69047567
H       3.12907812      0.00005266      0.95063088
H       3.01683955      2.13571429     -1.02866833
H       1.97124645      0.11325374     -2.45966496
H       3.65154330      0.11251605     -3.04590599
H       3.05051261     -1.99630332     -1.13832618
H       5.33758790     -1.07589896     -1.57361842
H       5.06948270     -1.11504545      0.05080676
H       5.17603225      1.14953888      0.19186612
H       5.45798100      1.19405111     -1.56891690
