19

 C      1.10549684      0.04251424      0.13000584
 C      2.61048127      0.04054516     -0.00792476
 C      3.25501439      1.08371120     -0.96805243
 C      2.94731663      0.09811928     -2.11942595
 C      3.21587469     -0.94446066     -1.03124709
 N      4.69105050     -0.70714278     -0.78585033
 C      4.73375169      0.82369558     -0.74024530
 H      0.76826325     -0.85911303      0.64461034
 H      0.58164849      0.09990251     -0.82435614
 H      0.79454337      0.89912869      0.73008535
 H      3.06229928     -0.00907882      0.99024056
 H      2.95006071      2.12658281     -0.98905865
 H      1.90446761      0.10412226     -2.42005528
 H      3.58476446      0.10338457     -3.00629631
 H      2.98373377     -2.00543480     -1.09871650
 H      5.27080906     -1.08503044     -1.53400873
 H      5.00270386     -1.12417693      0.09041645
 H      5.10925341      1.14040740      0.23147580
 H      5.39120216      1.18491963     -1.52930722
