17

C       1.14838570     -0.03096819     -0.31685793
C       2.58830790      0.30407327     -0.06088774
C       3.74648351     -0.53558234     -0.69119623
N       4.61652876      0.70839374     -0.45443991
C       3.32156028      1.42490941     -0.86695745
C       3.22896004      0.92594589     -2.29877043
C       3.50985742     -0.37004588     -2.18258270
H       0.50517055      0.76642454      0.05990372
H       0.87620822     -0.94545242      0.21337622
H       0.93936355     -0.17136031     -1.37749708
H       2.76333041      0.43831494      1.01334563
H       4.12151907     -1.46895497     -0.28031978
H       4.87580191      0.85225321      0.52338734
H       5.41901183      0.82667597     -1.07518197
H       3.26455587      2.48486341     -0.63478591
H       2.97989794      1.52084885     -3.16449057
H       3.55930034     -1.15237197     -2.92483206
