19

C       1.09221216      0.00357405     -2.19313585
C       0.56817613      0.47475525     -0.86570481
C      -0.61477107      1.39022964     -0.78181921
C      -0.74802289     -0.03998671     -0.35407887
C      -1.01057662     -0.40816641      1.05880740
C      -0.22954799     -1.43761894      1.76659759
N       0.00040643     -0.00779729      2.08302239
H       1.63709874     -0.93812050     -2.10003586
H       1.76859743      0.74475121     -2.62273675
H       0.27340480     -0.14911383     -2.89957183
H       1.35428593      0.67195559     -0.13580488
H      -0.61760088      2.15831101     -0.01641240
H      -1.10101507      1.68381355     -1.70363383
H      -1.28944316     -0.69780252     -1.02786223
H      -2.01932609     -0.23838545      1.42460200
H       0.60279830     -1.90187787      1.25293389
H      -0.67530766     -2.00305938      2.57452570
H      -0.31948560      0.35109034      2.97538678
H       0.86077139      0.41067841      1.74353706
