19

 C      1.20220414      0.01068539     -2.28569051
 C      0.67816811      0.48186659     -0.95825947
 C     -0.50477909      1.39734098     -0.87437387
 C     -0.63803091     -0.03287537     -0.44663353
 C     -0.90058464     -0.40105507      0.96625274
 C     -0.11955601     -1.43050759      1.67404293
 N      0.11039841     -0.00068594      1.99046773
 H      1.74709072     -0.93100916     -2.19259052
 H      1.87858941      0.75186255     -2.71529141
 H      0.38339678     -0.14200249     -2.99212649
 H      1.46427791      0.67906693     -0.22835954
 H     -0.50760890      2.16542235     -0.10896706
 H     -0.99102309      1.69092489     -1.79618849
 H     -1.17945118     -0.69069118     -1.12041689
 H     -1.90933411     -0.23127411      1.33204734
 H      0.71279028     -1.89476652      1.16037923
 H     -0.56531568     -1.99594803      2.48197104
 H     -0.20949362      0.35820169      2.88283212
 H      0.97076337      0.41778976      1.65098240
