19

 C      1.56557186     -0.00295864     -0.71881061
 C      0.07909747      0.18841385     -0.56682468
 C     -0.56569611      1.42789164     -1.13866215
 C     -0.78516391      0.11329680     -1.80191497
 C     -0.56084447     -0.35475824      0.65342835
 C      0.03892232     -1.37878271      1.52286270
 N      0.03950783      0.02675428      1.99211435
 H      1.90458618      0.47584117     -1.63760892
 H      1.84094174     -1.05842847     -0.78633461
 H      2.14511665      0.45751707      0.09038160
 H     -1.39695689      1.87548336     -0.60677499
 H      0.09510694      2.14196242     -1.61316965
 H     -0.27009139     -0.09169942     -2.73155486
 H     -1.76422360     -0.34415508     -1.72714996
 H     -1.64215473     -0.27337702      0.69414200
 H      1.02738682     -1.75619416      1.29601269
 H     -0.59690762     -2.03649984      2.10120300
 H     -0.57430434      0.28780964      2.75468975
 H      0.92119965      0.52710758      1.97420354
