18
1646.log
C      1.557593    0.000506   -0.746925
C      0.073130    0.186346   -0.572085
C     -0.547894    1.430182   -1.146967
C     -0.780856    0.103278   -1.804089
C     -0.550485   -0.320653    0.690819
C      0.059576   -1.379275    1.517584
N      0.000331   -0.000527    2.003856
H      1.895863    0.499739   -1.656951
H      1.825043   -1.055999   -0.831146
H      2.128887    0.430536    0.082263
H      0.103689    2.139105   -1.643719
H     -1.371370    1.880068   -0.605357
H     -0.285565   -0.094696   -2.747224
H     -1.763936   -0.343569   -1.713651
H     -1.637518   -0.270696    0.675808
H      1.020862   -1.776949    1.209894
H     -0.570101   -2.082481    2.052293
H      0.908496    0.440740    1.902088
