19

C       1.45962332     -0.01197583     -0.71392310
C      -0.02685107      0.17939666     -0.56193717
C      -0.67164465      1.41887445     -1.13377464
C      -0.89111245      0.10427961     -1.79702746
C      -0.66679301     -0.36377543      0.65831586
C      -0.06702622     -1.38779990      1.52775021
N      -0.06644071      0.01773708      1.99700186
H       1.79863764      0.46682398     -1.63272141
H       1.73499320     -1.06744566     -0.78144710
H       2.03916811      0.44849988      0.09526911
H      -1.50290543      1.86646617     -0.60188748
H      -0.01084160      2.13294523     -1.60828214
H      -0.37603993     -0.10071661     -2.72666735
H      -1.87017214     -0.35317227     -1.72226245
H      -1.74810327     -0.28239422      0.69902951
H       0.92143828     -1.76521135      1.30090020
H      -0.70285616     -2.04551704      2.10609051
H      -0.68025288      0.27879244      2.75957726
H       0.81525111      0.51809039      1.97909105
