20
1647.log
C      1.383169    0.000297   -2.423696
C      0.342790    0.517638   -1.472109
C     -1.112105    0.258053   -1.727732
C     -0.418829   -0.417799   -0.581876
C     -0.745745   -0.040686    0.836006
C      0.384415   -0.341478    1.805003
N     -0.000446    0.000023    3.166446
H      1.519324    0.675260   -3.273526
H      1.092940   -0.976082   -2.821420
H      2.352663   -0.117694   -1.931121
H      0.569836    1.485318   -1.031574
H     -1.371871   -0.338759   -2.594551
H     -1.825335    1.039962   -1.492873
H     -0.198983   -1.472941   -0.728973
H     -1.646102   -0.564202    1.175120
H     -0.979587    1.031335    0.875320
H      1.296162    0.170411    1.457263
H      0.600804   -1.414891    1.777064
H     -0.160829    0.997450    3.245559
H      0.740441   -0.228884    3.816944
