18
1653.log
C      1.927774   -0.000122   -0.483610
C      0.449141    0.243682   -0.363612
C     -0.152346    1.381192   -1.113622
C     -0.411508   -0.032880   -1.566699
N     -0.000291    0.000114    0.984653
C     -1.401096   -0.191455    1.269921
C     -0.461121   -1.334167    1.309860
H      2.472722    0.632032    0.221227
H      2.279810    0.217594   -1.493763
H      2.167535   -1.043353   -0.258480
H      0.499011    2.009660   -1.709036
H     -0.976028    1.904969   -0.642655
H     -1.412226   -0.425753   -1.432537
H      0.080775   -0.385653   -2.465077
H     -2.118868   -0.171071    0.454584
H     -1.751434    0.264138    2.190093
H     -0.534872   -2.049987    0.494531
H     -0.122614   -1.739953    2.257119
