20
1654.log
C      0.920634    0.000688   -2.440184
C     -0.056020    0.072753   -1.302241
C     -0.814482   -1.151240   -0.860182
C      0.249587   -0.586238    0.019335
N      0.000216   -0.000806    1.304365
C      1.001506    0.989683    1.624112
C     -1.333631    0.484398    1.549207
H      0.415626    0.046333   -3.409730
H      1.482566   -0.937364   -2.408117
H      1.643883    0.820182   -2.400736
H     -0.626175    0.995466   -1.241133
H     -0.604151   -2.092140   -1.355962
H     -1.852829   -1.022363   -0.583860
H      1.179797   -1.151034    0.026035
H      1.998443    0.560275    1.498286
H      0.896061    1.300597    2.666468
H      0.939290    1.891108    0.988923
H     -2.060649   -0.321531    1.444435
H     -1.639155    1.318862    0.891910
H     -1.390453    0.846286    2.578415
