18
1658.log
C      2.041828    0.000039   -0.948221
C      0.536623   -0.175928   -0.910407
C     -0.271062    1.127364   -0.657791
C     -1.028778    0.683757    0.601050
C     -1.504697   -0.729221    0.220752
C      0.011424   -0.970485    0.303021
N     -0.000469    0.000037    1.428924
H      2.341321    0.660016   -1.766527
H      2.550658   -0.957682   -1.088899
H      2.420743    0.444867   -0.022373
H      0.214638   -0.659748   -1.838371
H     -0.932690    1.393630   -1.485565
H      0.377986    1.985083   -0.457407
H     -1.676691    1.408388    1.094935
H     -1.999827   -0.868705   -0.741299
H     -2.044428   -1.213574    1.032436
H      0.442113   -1.956033    0.486695
H      0.864538    0.530241    1.520113
