19

C       2.08866489      0.00442827      0.11780371
C       0.77607431      0.73593069      0.28133067
C      -0.03910301      0.83225048     -1.01212815
C      -0.92690984     -0.40064940     -1.03394813
C      -2.18134512     -0.33467613     -0.22046508
C      -0.96125460     -0.96957908      0.34948464
N      -0.12592678     -0.08522096      1.20535671
H       2.60868216     -0.12141538      1.07100175
H       2.74164885      0.58579549     -0.53383478
H       1.94429737     -0.97578593     -0.34400966
H       0.92845502      1.70287761      0.76396378
H      -0.63132277      1.74905368     -1.04437597
H       0.63470578      0.85329940     -1.86811771
H      -0.88850461     -1.06685167     -1.88518958
H      -2.49685681      0.63170561      0.16098257
H      -2.99526226     -1.00331163     -0.46947456
H      -0.90715694     -2.01920771      0.60115495
H       0.44221071     -0.63495002      1.85026958
H      -0.71358604      0.52289696      1.77746968
