19

 C      2.24737748      0.03584886      0.15020723
 C      0.93478690      0.76735128      0.31373419
 C      0.11960958      0.86367107     -0.97972463
 C     -0.76819725     -0.36922881     -1.00154461
 C     -2.02263253     -0.30325554     -0.18806156
 C     -0.80254201     -0.93815849      0.38188816
 N      0.03278581     -0.05380037      1.23776023
 H      2.76739475     -0.08999479      1.10340527
 H      2.90036144      0.61721608     -0.50143127
 H      2.10300996     -0.94436534     -0.31160614
 H      1.08716761      1.73429820      0.79636729
 H     -0.47261018      1.78047427     -1.01197245
 H      0.79341837      0.88471999     -1.83571419
 H     -0.72979202     -1.03543108     -1.85278606
 H     -2.33814422      0.66312620      0.19338609
 H     -2.83654967     -0.97189104     -0.43707104
 H     -0.74844435     -1.98778712      0.63355847
 H      0.60092330     -0.60352943      1.88267310
 H     -0.55487345      0.55431755      1.80987320
