19

 C      1.15112232     -0.02507355     -1.83119014
 C      0.28259978      0.78239513     -0.87525873
 C     -1.15171476      0.23482547     -0.69296621
 C     -1.18500492     -0.45324567      0.64344176
 C     -0.12983617     -1.41687483      1.00344548
 N      0.02412973     -0.00142604      1.39384662
 C      0.85031001      0.89595148      0.55100122
 H      2.14924799      0.41082449     -1.90723614
 H      0.71435053     -0.01641341     -2.83111523
 H      1.26814895     -1.07101324     -1.53867894
 H      0.21424284      1.79388817     -1.27954661
 H     -1.88648477      1.04175576     -0.68917947
 H     -1.42842849     -0.45310090     -1.49359355
 H     -2.10239312     -0.47310272      1.22014451
 H     -0.29813345     -2.08843183      1.83605364
 H      0.58175088     -1.75253493      0.26233470
 H     -0.05031556      0.21685291      2.38122670
 H      1.89766138      0.60324242      0.63044341
 H      0.72967406      1.89798654      0.96378657
