16
1667.log
C     -1.726738    1.604125    0.000000
C     -0.949147    0.531854    0.000000
C     -0.415645   -0.168210    1.229469
C      0.818482   -0.881408    0.738863
N      1.726043   -0.000102    0.000000
C      0.818482   -0.881408   -0.738863
C     -0.415645   -0.168210   -1.229469
H     -2.057622    2.064098    0.924781
H     -2.057622    2.064098   -0.924781
H     -1.139904   -0.907708    1.593040
H     -0.214026    0.530446    2.044694
H      1.233861   -1.707034    1.305750
H      2.661079   -0.393167   -0.000000
H      1.233861   -1.707034   -1.305750
H     -1.139904   -0.907708   -1.593040
H     -0.214026    0.530446   -2.044694
