17

 C      1.19201116      0.00269178     -2.18351043
 C      0.37374897     -0.05959168     -0.95131744
 C      0.00655179     -1.15348914     -0.27025979
 C     -0.77805635     -0.78644859      0.92533547
 N      0.05313171      0.00347160      1.91865513
 C     -0.84773802      0.68830064      0.94527149
 C     -0.16998425      1.19202439     -0.30190144
 H      1.47355556     -0.98994722     -2.53195971
 H      2.10379827      0.58424299     -2.01719571
 H      0.64098459      0.51080245     -2.98073162
 H      0.23885531     -2.17779849     -0.52732022
 H     -1.50630284     -1.43423266      1.39596880
 H      1.05441181      0.02197307      1.74979947
 H     -0.22111840      0.01855796      2.89529574
 H     -1.64795420      1.23684146      1.42412486
 H      0.59863328      1.94472357     -0.10067286
 H     -0.91219267      1.67910746     -0.94314434
