16
1668.log
C      1.202393   -0.000045   -2.198045
C      0.364773   -0.058959   -0.971600
C     -0.002068   -1.145354   -0.286530
C     -0.741749   -0.791535    0.950745
N      0.000033   -0.000179    1.940830
C     -0.821663    0.692850    0.960925
C     -0.172054    1.190181   -0.314052
H      1.465358   -0.998017   -2.551927
H      2.131048    0.551771   -2.016863
H      0.680687    0.525177   -3.005206
H      0.242772   -2.164875   -0.562312
H     -1.509032   -1.441552    1.355185
H      0.979793    0.033791    1.672047
H     -1.666826    1.231515    1.373777
H      0.616427    1.928873   -0.123398
H     -0.906014    1.684681   -0.961781
