20
1702.log
C      2.095515   -0.000118   -0.544125
C      0.610385    0.289427   -0.501983
C     -0.212594   -0.567401   -1.466314
C     -1.584408   -0.725195   -0.785614
C     -1.427227    0.020100    0.537909
N     -0.000024   -0.000322    0.787553
C      0.400050    0.872145    1.859133
H      2.480488    0.146823   -1.556133
H      2.283765   -1.035571   -0.248858
H      2.662592    0.656378    0.119461
H      0.450827    1.358899   -0.753518
H      0.270092   -1.539637   -1.593405
H     -0.277190   -0.105030   -2.452948
H     -1.809254   -1.778367   -0.610532
H     -2.399928   -0.313117   -1.381847
H     -1.971897   -0.441091    1.366051
H     -1.796359    1.059553    0.438579
H     -0.118758    0.590022    2.778275
H      0.168301    1.933779    1.649847
H      1.471974    0.787742    2.045756
