21

 C      2.11629893      0.02764375     -0.56357397
 C      0.62800328      0.26650533     -0.54171960
 C     -0.20271215     -0.63199104     -1.44280554
 C     -1.61927168     -0.62660159     -0.84566050
 C     -1.46428997     -0.05738512      0.56620028
 N      0.01528984     -0.00916006      0.81598212
 C      0.40837878      0.91962474      1.89813619
 H      2.66591980      0.71544969      0.08010525
 H      2.48108828      0.17800785     -1.58069378
 H      2.35979158     -1.00060122     -0.28038529
 H      0.39807317      1.31925081     -0.73506574
 H      0.22040301     -1.64078062     -1.44168195
 H     -0.17692346     -0.27821558     -2.47268721
 H     -2.04589952     -1.62854299     -0.82770309
 H     -2.29823763      0.00012139     -1.42266295
 H     -1.82134090      0.96989434      0.64254201
 H     -1.93481140     -0.64463689      1.35389604
 H      0.31857099     -0.94837028      1.08245959
 H      0.14406369      1.93261748      1.59828745
 H      1.48040593      0.84875615      2.06871766
 H     -0.12632488      0.65293047      2.80864838
