19

 C      1.67213774     -0.03802457     -1.00537897
 C      0.57038705      0.74606203     -0.32353996
 C     -0.66286734      0.87771144     -1.16575398
 C     -1.62494977      0.05621169     -0.77387374
 C     -1.21145400     -0.72876977      0.42703343
 N     -0.00998844      0.03832949      0.90664926
 C      0.92988176     -0.73760731      1.74604896
 H      2.56408635     -0.13202605     -0.38476196
 H      1.96027543      0.50579872     -1.90677010
 H      1.33444002     -1.02778507     -1.31923897
 H      0.95673926      1.70611308      0.02923519
 H     -0.69473619      1.53522053     -2.02413901
 H     -2.58652953     -0.08068691     -1.24894636
 H     -0.90472836     -1.75086492      0.18707814
 H     -1.94931756     -0.77281618      1.22991822
 H     -0.38298770      0.79395873      1.48188431
 H      1.33004030     -1.56621748      1.16753915
 H      0.38929003     -1.12017762      2.61089247
 H      1.73844126     -0.08740088      2.07694471
