18
1703.log
C      1.695585   -0.000006   -1.025639
C      0.559038    0.711756   -0.285942
C     -0.647672    0.854491   -1.166518
C     -1.625296    0.056393   -0.761742
C     -1.209471   -0.690763    0.464050
N      0.000238   -0.000080    0.861964
C      0.890725   -0.717878    1.725012
H      2.002298    0.587403   -1.894943
H      1.378503   -0.984251   -1.379443
H      2.572517   -0.126344   -0.386114
H      0.933838    1.691770    0.045112
H     -0.662257    1.493491   -2.040695
H     -2.587309   -0.073455   -1.240698
H     -1.048783   -1.761990    0.228374
H     -1.961409   -0.659833    1.264054
H      0.353932   -1.027490    2.626315
H      1.710933   -0.068707    2.043107
H      1.330408   -1.624729    1.273427
