21

 C      2.41049486     -0.02852329     -0.05235339
 C      0.96278150      0.17467879     -0.38865749
 C      0.18262870     -0.89472516     -1.16285864
 C     -0.97562162     -0.72877273     -0.16748484
 C     -2.12806919      0.11668479     -0.63329845
 N     -0.00437140      0.00377459      0.77998333
 C     -0.41938485      1.17758302      1.56332546
 H      2.78301700      0.73473035      0.63417489
 H      3.00054110      0.04142378     -0.96852777
 H      2.58901840     -1.01758241      0.37831982
 H      0.77890768      1.17378343     -0.78829817
 H      0.65685648     -1.87545922     -1.11062261
 H     -0.04956244     -0.66337192     -2.20014735
 H     -1.32961146     -1.63938012      0.31584205
 H     -1.80399501      1.02949195     -1.13705197
 H     -2.80903066      0.37498981      0.17927882
 H     -2.69492960     -0.47059150     -1.35857132
 H      0.39288060     -0.68711515      1.41636384
 H     -0.85567048      1.92049307      0.90030613
 H      0.45725264      1.59646020      2.05723561
 H     -1.15021975      0.87569085      2.31287940
