21

C       2.41485017     -0.11195963     -0.08825193
C       0.96713681      0.09124245     -0.42455603
C       0.18698401     -0.97816150     -1.19875718
C      -0.97126631     -0.81220907     -0.20338338
C      -2.12371388      0.03324845     -0.66919699
N      -0.00001609     -0.07966175      0.74408479
C      -0.41502954      1.09414668      1.52742692
H       2.78737231      0.65129401      0.59827635
H       3.00489641     -0.04201256     -1.00442632
H       2.59337371     -1.10101875      0.34242127
H       0.78326299      1.09034709     -0.82419671
H       0.66121179     -1.95889556     -1.14652115
H      -0.04520713     -0.74680826     -2.23604589
H      -1.32525615     -1.72281646      0.27994351
H      -1.79963970      0.94605561     -1.17295051
H      -2.80467535      0.29155347      0.14338028
H      -2.69057429     -0.55402784     -1.39446986
H       0.39723591     -0.77055149      1.38046530
H      -0.85131517      1.83705673      0.86440759
H       0.46160795      1.51302386      2.02133707
H      -1.14586444      0.79225451      2.27698086
