21

C       1.79746276      0.03202358     -0.95238985
C       0.50162595      0.80870518     -0.74364227
C      -0.73951256      0.06880196     -1.25047172
C      -1.10292256     -1.11906338     -0.36772271
C      -1.26290413     -0.70617191      1.07911079
N      -0.02255380      0.00259538      1.54375122
C       0.30045707      1.20971241      0.70906589
H       2.66229912      0.60004810     -0.60243809
H       1.94693530     -0.17138097     -2.01372501
H       1.81013302     -0.94123618     -0.45037394
H       0.58706683      1.75050356     -1.29415718
H      -1.58559562      0.76347246     -1.28589747
H      -0.57326928     -0.26871416     -2.27504107
H      -2.04397903     -1.56692179     -0.69337971
H      -0.35075616     -1.91105557     -0.44306833
H      -2.08314443      0.00279049      1.21104961
H      -1.42328591     -1.55416854      1.74593314
H       0.76675902     -0.64558355      1.50217961
H      -0.12386300      0.27598875      2.52153217
H       1.19074427      1.67070854      1.13989191
H      -0.54267888      1.89286263      0.82857800
