20
1709.log
C      1.852292    0.000528   -0.986790
C      0.563176    0.777931   -0.755516
C     -0.672187    0.033200   -1.269740
C     -1.036916   -1.154098   -0.385285
C     -1.160950   -0.716036    1.070354
N     -0.000568    0.000075    1.571834
C      0.358159    1.123039    0.724738
H      1.984712   -0.237451   -2.045554
H      1.867802   -0.945353   -0.438979
H      2.721420    0.580649   -0.664456
H      0.643812    1.723630   -1.305704
H     -0.515817   -0.290315   -2.303941
H     -1.519516    0.729977   -1.286599
H     -0.272271   -1.935404   -0.464711
H     -1.975616   -1.604498   -0.724495
H     -1.350176   -1.573942    1.721567
H     -2.027568   -0.049218    1.171970
H      0.783932   -0.633655    1.664083
H      1.257921    1.594064    1.132959
H     -0.448068    1.863155    0.805530
