19

C       1.99545820      0.01938978     -1.44459685
C       0.87139692      0.28552296     -0.79150078
C      -0.50978198      0.04467267     -1.32266344
C      -1.32702137     -0.79124159     -0.33758975
C      -1.31387306     -0.19117829      1.05110622
N       0.10273038     -0.00785443      1.51632017
C       0.90846711      0.86534608      0.58621692
H       2.97081906      0.20918369     -1.00985396
H       1.97759227     -0.37877316     -2.45250020
H      -1.01257691      1.00752384     -1.47990198
H      -0.46357730     -0.45220849     -2.29184792
H      -2.36735484     -0.86735980     -0.66032836
H      -0.93738902     -1.81447036     -0.29926292
H      -1.77016196      0.80091562      1.07164350
H      -1.81764401     -0.82211550      1.78451946
H       0.55567289     -0.92307251      1.57259381
H       0.11128398      0.38622491      2.45819439
H       1.91944832      0.93390645      0.98719011
H       0.43898962      1.85265842      0.62966415
