18
1710.log
C      1.901391   -0.000010   -1.381881
C      0.787140    0.263745   -0.709145
C     -0.589262    0.014730   -1.250436
C     -1.416612   -0.813554   -0.266209
C     -1.352837   -0.208161    1.131819
N     -0.000315    0.000111    1.620812
C      0.792987    0.801007    0.695662
H      1.876522   -0.403437   -2.389204
H      2.879534    0.187014   -0.949912
H     -0.537960   -0.467941   -2.229597
H     -1.088812    0.983076   -1.394337
H     -1.022433   -1.836178   -0.233727
H     -2.455585   -0.882028   -0.604996
H     -1.889299   -0.836431    1.848316
H     -1.857576    0.766607    1.130095
H      0.451973   -0.899178    1.745410
H      1.813962    0.881670    1.075940
H      0.368413    1.814553    0.697136
