19

 C      0.94932808     -0.11659776     -0.14649537
 C      2.43753037     -0.04562471     -0.06265114
 C      3.12864260      1.08893713      0.01511601
 C      4.62192770      1.17472857      0.04474040
 C      5.26937436     -0.13997321     -0.32362084
 N      4.54730423     -1.24950155      0.38210707
 C      3.12785467     -1.37618248     -0.07245015
 H      0.63007744     -0.64828424     -1.04855995
 H      0.51249349      0.88087112     -0.17200833
 H      0.52781409     -0.65522667      0.70778826
 H      2.58807956      2.02880945      0.05553748
 H      4.96704185      1.93084396     -0.66591632
 H      4.97055836      1.51887010      1.02641143
 H      6.31996299     -0.19089687     -0.03731662
 H      5.18066957     -0.35198959     -1.39006315
 H      4.55481512     -1.05927608      1.38655270
 H      5.03567342     -2.13498219      0.24482919
 H      3.14619634     -1.82671865     -1.06926724
 H      2.63467698     -2.08234623      0.60044955
