21

 C      1.12640082      0.05195915      0.44276335
 C      2.46339076      0.07242481     -0.27981046
 C      2.28048413      0.07697609     -1.78144011
 C      3.41869041      1.16381418      0.29120114
 C      4.00547289      0.08542272      1.19617079
 N      5.50079465      0.10371815      1.38820343
 C      3.44643234     -0.99930512      0.28126584
 H      0.55539985     -0.83660254      0.16424309
 H      0.53276753      0.92810573      0.17234847
 H      1.23523015      0.04835720      1.53086304
 H      3.23876038      0.09167909     -2.30683015
 H      1.70892489      0.95276954     -2.09841490
 H      1.73153541     -0.81023888     -2.10651247
 H      2.98036766      2.03916087      0.77013686
 H      4.13271725      1.49076474     -0.47148141
 H      3.57975052      0.07535680      2.19900167
 H      5.97623364      0.11397144      0.48339999
 H      5.82248052     -0.72151145      1.89929854
 H      5.80127177      0.93219712      1.90689409
 H      4.16851921     -1.30081825     -0.48430327
 H      3.03075858     -1.88996657      0.75209021
