21

C       0.42210418      0.04971882     -2.42497497
C       1.01580091      0.25997110     -1.04998092
C       0.20775039      1.18499501     -0.10163363
C      -0.21797496     -0.05129386      0.70911626
C      -1.66126531     -0.47451047      0.59603180
N       0.09928576      0.08136161      2.18965566
C       0.81620082     -0.90519893     -0.04473664
H       0.47611885      0.96825465     -3.01300838
H      -0.62705550     -0.25448366     -2.38069341
H       0.96892632     -0.72467405     -2.96692532
H       2.05921246      0.56107302     -1.14669601
H      -0.61240317      1.75166196     -0.54422241
H       0.84104139      1.88001837      0.45673101
H      -1.92395297     -0.57961302     -0.45590973
H      -2.33823061      0.26901726      1.02745243
H      -1.84004466     -1.44238796      1.07403844
H       1.06920778      0.36758460      2.33223077
H      -0.04226024     -0.80745242      2.67541575
H      -0.50396703      0.77863691      2.63224095
H       1.71523904     -1.12309010      0.53847836
H       0.43449056     -1.84470485     -0.44632602
