20
1716.log
C      0.334734    0.000144   -2.428528
C      0.926977    0.239206   -1.055127
C      0.116732    1.172288   -0.125710
C     -0.277501   -0.047535    0.762995
C     -1.718685   -0.478695    0.578757
N      0.000338   -0.000002    2.184100
C      0.736813   -0.903778   -0.031059
H      0.379156    0.906414   -3.039330
H     -0.713307   -0.305998   -2.368789
H      0.877696   -0.787389   -2.958960
H      1.970153    0.544430   -1.169663
H     -0.707908    1.719241   -0.591981
H      0.742606    1.885803    0.415638
H     -2.399583    0.253956    1.025183
H     -1.978136   -0.568305   -0.477290
H     -1.887277   -1.443188    1.063337
H     -0.643034    0.627821    2.653574
H      0.936159    0.348277    2.356314
H      0.358139   -1.851654   -0.422359
H      1.635566   -1.111100    0.553875
