21

C       1.05729461      0.01083533      0.78881094
C       2.25145210      0.14907035     -0.13059163
C       3.28135892      1.21261363      0.31999836
C       4.14243212      0.08106315      0.91905647
C       5.62569804      0.17045467      0.69420260
N       6.28087153     -1.12826907      1.10305941
C       3.33833894     -0.93604229      0.07690494
H       0.45847728     -0.86283406      0.52260049
H       0.41317994      0.88996968      0.71995121
H       1.35885641     -0.09712995      1.83514948
H       1.91602315      0.25438393     -1.16283441
H       2.93614573      1.98374392      1.00864360
H       3.77489021      1.69526132     -0.52720587
H       3.93605726     -0.03385672      1.98841063
H       6.10303581      0.96068331      1.27634428
H       5.86754582      0.31173588     -0.36089424
H       6.15318826     -1.30084107      2.10221757
H       7.28304881     -1.13950006      0.90562717
H       5.84619172     -1.90657889      0.60068594
H       3.84371397     -1.18252898     -0.86365222
H       3.02039736     -1.86104908      0.56315329
