21

 C      1.10281172     -0.05621192      0.83954022
 C      2.29696920      0.08202310     -0.07986236
 C      3.32687603      1.14556638      0.37072763
 C      4.18794923      0.01401590      0.96978574
 C      5.67121515      0.10340742      0.74493187
 N      6.32638864     -1.19531633      1.15378868
 C      3.38385604     -1.00308954      0.12763421
 H      0.50399438     -0.92988131      0.57332977
 H      0.45869705      0.82292243      0.77068049
 H      1.40437352     -0.16417720      1.88587876
 H      1.96154025      0.18733668     -1.11210513
 H      2.98166284      1.91669667      1.05937287
 H      3.82040732      1.62821407     -0.47647660
 H      3.98157437     -0.10090397      2.03913990
 H      6.14855292      0.89363606      1.32707355
 H      5.91306292      0.24468862     -0.31016497
 H      6.19870537     -1.36788832      2.15294684
 H      7.32856592     -1.20654732      0.95635644
 H      5.89170882     -1.97362615      0.65141521
 H      3.88923107     -1.24957623     -0.81292295
 H      3.06591446     -1.92809633      0.61388257
