19

C       1.10706327     -0.09199395      0.24735758
C       2.50456172      0.21755837     -0.24244937
C       3.24537392      1.27278147      0.60504356
C       3.92928968      0.14491455      1.37739114
N       3.48337256     -0.85852849      0.34029784
C       2.58627359      0.26575604     -1.72887723
C       3.03747701      1.29080104     -2.43627658
H       0.70935668     -0.99147979     -0.22855618
H       0.45494946      0.74084898     -0.01985830
H       1.06706121     -0.21236984      1.33319421
H       2.60492104      1.93154011      1.18656534
H       3.95063202      1.87025469      0.03062290
H       5.01087197      0.17257770      1.48438309
H       3.47020558     -0.09823580      2.33292099
H       4.21778131     -1.09655775     -0.32510228
H       3.05862886     -1.71816350      0.68526727
H       2.18092781     -0.60609015     -2.23994177
H       3.41598123      2.19914012     -1.98113574
H       3.01888694      1.26569366     -3.51897835
