17

C       1.36868555     -0.04847386      0.49858289
C       2.64419289      0.18332906     -0.26225026
C       3.62274613      1.21767387      0.31914260
C       4.48000620      0.06138582      0.87453922
N       3.67675886     -0.92008459      0.00936184
C       5.89393626      0.02970525      0.62733584
C       7.07234836      0.02067567      0.40726261
H       0.83610491     -0.92962914      0.13411961
H       0.71527663      0.81405573      0.35439941
H       1.54376432     -0.15206064      1.57281277
H       2.46544396      0.25513882     -1.33417039
H       3.21118046      1.88989811      1.06840875
H       4.14994864      1.79331566     -0.43940859
H       4.25186149     -0.16440392      1.91787379
H       4.20240267     -1.20005009     -0.81865469
H       3.33392511     -1.75808377      0.47876245
H       8.12371683      0.01501473      0.21982685
