18
1739.log
C      0.648185   -0.000458   -2.019484
C     -0.222686    0.611936   -0.930679
C     -1.390773   -0.291631   -0.493924
C     -0.918931   -0.953655    0.801795
N     -0.000149   -0.000402    1.446642
C      1.373888   -0.126365    0.980356
C      0.487505    0.893024    0.388597
H      0.090476   -0.083830   -2.955931
H      0.989461   -1.003727   -1.752321
H      1.533417    0.611150   -2.210021
H     -0.614036    1.559168   -1.312388
H     -1.674384   -1.016116   -1.261501
H     -2.270211    0.322782   -0.284518
H     -0.413052   -1.906056    0.607171
H     -1.748967   -1.161599    1.480123
H      1.626420   -0.998204    0.383309
H      2.136546    0.164982    1.696001
H      0.618946    1.931384    0.678595
