19

 C      0.65550927     -0.03352495     -1.98179777
 C     -0.22392240      0.61485575     -0.92160651
 C     -1.41615976     -0.26050536     -0.47897046
 C     -0.96313439     -0.98925075      0.78004901
 N      0.00499631     -0.04663214      1.41122265
 C      1.41753711     -0.07034297      0.98038418
 C      0.50221284      0.91784944      0.38402192
 H      1.55017150      0.56053104     -2.17728594
 H      0.10198292     -0.11415543     -2.91804269
 H      0.97044096     -1.04352195     -1.70625928
 H     -0.59810285      1.56139790     -1.31543837
 H     -2.27693732      0.36877562     -0.24428627
 H     -1.72275125     -0.95907235     -1.25779783
 H     -1.76390656     -1.18467514      1.49154101
 H     -0.44367580     -1.92652299      0.57994408
 H     -0.19010447      0.27986759      2.35065352
 H      1.68920683     -0.95871270      0.42533476
 H      2.12322229      0.24880214      1.73743228
 H      0.57821935      1.94242644      0.72884199
