17

C       0.98558425     -0.05595509     -0.06727570
C       2.43469170      0.18834670      0.13503482
C       3.13841419      1.29991839     -0.06927765
C       4.58309445      1.16055681      0.28527349
N       4.68958945     -0.27350234      0.66063211
C       4.39654907     -1.33109521     -0.33032805
C       3.33598144     -0.90221646      0.60493586
H       0.48519279      0.84261800     -0.42459833
H       0.51104529     -0.36463032      0.86889648
H       0.81688738     -0.85828304     -0.79135635
H       2.74160631      2.23020733     -0.45323869
H       4.87468479      1.76176248      1.15057052
H       5.27513039      1.37600573     -0.53230704
H       5.31770076     -0.52090889      1.41628028
H       4.35703060     -0.98035551     -1.35418429
H       4.93526808     -2.25352426     -0.15042611
H       3.06273750     -1.54661560      1.43399394
