21

 C      0.96444932      0.09329685      0.25415124
 C      2.47656821      0.04700867      0.07436793
 C      2.98524691     -1.34496526     -0.31021876
 C      2.63594953     -1.72317122     -1.73345416
 N      3.16201166     -0.67929460     -2.67763678
 C      2.63403899      0.69388815     -2.37183521
 C      2.98333938      1.06829440     -0.94759626
 H      0.64435227      1.08746464      0.57174397
 H      0.64569785     -0.61486529      1.02135443
 H      0.41153086     -0.14804856     -0.65798397
 H      2.93093406      0.30129727      1.03580401
 H      4.07297558     -1.39687225     -0.18259167
 H      2.56497658     -2.10693680      0.35010003
 H      3.07271435     -2.67789743     -2.02891024
 H      1.55877468     -1.76865288     -1.90040998
 H      4.18247064     -0.66167752     -2.61398844
 H      2.93463874     -0.93352732     -3.63954060
 H      1.55686335      0.64940620     -2.53905507
 H      3.06950774      1.37885571     -3.10035862
 H      2.56168578      2.05632604     -0.74947914
 H      4.07094026      1.17805955     -0.86266917
