19

C      -2.47377642     -0.21353607     -0.00000006
C      -1.21334770      0.19699968      0.00000002
C      -0.43019489      0.44520409      1.25679907
C       0.87538858     -0.32855865      1.25316095
N       1.64500606     -0.02011507      0.00000001
C       0.87538857     -0.32855921     -1.25316105
C      -0.43019487      0.44520453     -1.25679893
H      -3.01540101     -0.38183939     -0.92392809
H      -3.01540102     -0.38183972      0.92392791
H      -0.21136594      1.51686431      1.36157326
H      -0.99738668      0.15450209      2.14217302
H       1.51637583     -0.07483273      2.09846200
H       0.70392160     -1.40636642      1.24873176
H       1.89273621      0.97231051      0.00000018
H       2.52450699     -0.53840776     -0.00000008
H       0.70392162     -1.40636598     -1.24873224
H       1.51637587     -0.07483199     -2.09846200
H      -0.99738662      0.15450385     -2.14217298
H      -0.21136592      1.51686479     -1.36157274
