19

 C     -2.34830661     -0.22861683     -0.00000006
 C     -1.08787789      0.18191892      0.00000002
 C     -0.30472508      0.43012333      1.25679907
 C      1.00085839     -0.34363941      1.25316095
 N      1.77047587     -0.03519583      0.00000001
 C      1.00085838     -0.34363997     -1.25316105
 C     -0.30472506      0.43012377     -1.25679893
 H     -2.88993120     -0.39692015     -0.92392809
 H     -2.88993121     -0.39692048      0.92392791
 H     -0.08589613      1.50178355      1.36157326
 H     -0.87191687      0.13942134      2.14217302
 H      1.64184564     -0.08991348      2.09846200
 H      0.82939141     -1.42144718      1.24873176
 H      2.01820602      0.95722975      0.00000018
 H      2.64997680     -0.55348852     -0.00000008
 H      0.82939143     -1.42144674     -1.24873224
 H      1.64184568     -0.08991275     -2.09846200
 H     -0.87191681      0.13942309     -2.14217298
 H     -0.08589611      1.50178403     -1.36157274
