19

 C      0.47206905      0.00286404     -2.45144532
 C      0.16544090     -0.04987281     -0.99408919
 C      0.01307010     -1.19571724     -0.33256542
 C     -0.24722081     -1.29637596      1.13182615
 N      0.07386548      0.00234621      1.80172815
 C     -0.55220298      1.16296377      1.08838391
 C      0.04544625      1.27600300     -0.29552827
 H      0.59330620     -0.99267904     -2.87649175
 H      1.39016624      0.57002062     -2.63340665
 H     -0.32720394      0.51687939     -2.99385698
 H      0.08617128     -2.14440748     -0.85280995
 H      0.37214363     -2.06449096      1.60065552
 H     -1.29159931     -1.52515826      1.36576916
 H     -0.23015565     -0.02257431      2.77551950
 H      1.08858939      0.12655177      1.80789609
 H     -1.62222714      0.95312227      1.05217839
 H     -0.38742830      2.05567260      1.69191832
 H      1.02530354      1.76816912     -0.25901775
 H     -0.59068022      1.94517011     -0.88248571
