19

C       1.52136273      0.08547381     -2.11259399
C       0.54785634      0.12262976     -0.99711973
C       0.56039271      0.95234524      0.05258805
C      -0.57436538      0.68746757      0.97701995
N      -0.03478708      0.03208904      2.26477962
C      -1.47620700     -0.28762082      0.21788624
C      -0.62131538     -0.81785247     -0.94108709
H       2.32555390      0.80865882     -1.98262028
H       1.01614981      0.29122118     -3.06104489
H       1.95771153     -0.91343517     -2.20744695
H       1.28909444      1.73671622      0.22285228
H      -1.09439014      1.57539022      1.34265961
H       0.46501649     -0.82760377      2.03012487
H      -0.78387820     -0.19431634      2.92192220
H       0.62693536      0.65177964      2.73542685
H      -2.32744525      0.27508480     -0.16700452
H      -1.89200499     -1.07461148      0.85309701
H      -1.17536911     -0.82390661     -1.88279552
H      -0.27817205     -1.84810380     -0.79306857
