18
1757.log
C      1.547519    0.000105   -2.058770
C      0.554498    0.040435   -0.952455
C      0.563851    0.840252    0.111688
C     -0.551747    0.550287    1.073226
N     -0.001092    0.000740    2.307858
C     -1.477173   -0.368787    0.238188
C     -0.616647   -0.904093   -0.913681
H      2.344680    0.730543   -1.913287
H      1.068419    0.200644   -3.022942
H      2.002284   -0.993174   -2.138796
H      1.327907    1.578616    0.328575
H     -1.083149    1.465192    1.358630
H      0.514746   -0.849542    2.111891
H     -0.741843   -0.233877    2.958053
H     -2.302264    0.221649   -0.169016
H     -1.917338   -1.157732    0.852433
H     -1.160254   -0.920934   -1.864034
H     -0.269619   -1.932343   -0.749174
