17

 C      0.86188231      0.09100842      0.07130625
 C      2.33885853      0.01194608      0.01665786
 C      3.11386321     -1.08340390     -0.02620793
 C      4.54918685     -0.66347473      0.01157809
 N      5.29948272     -1.18649750     -1.19675149
 C      4.49893404      0.83663164     -0.00524937
 C      3.21665635      1.20440500      0.02570857
 H      0.39946784     -0.89414098      0.03010376
 H      0.47936607      0.69478808     -0.75685881
 H      0.54228764      0.58725857      0.99248724
 H      2.78454542     -2.11414977     -0.00611921
 H      5.08093935     -1.04983229      0.88816422
 H      4.84122157     -0.84839772     -2.04658429
 H      5.29958540     -2.20802518     -1.22234642
 H      6.27097967     -0.86912093     -1.20838579
 H      5.37172407      1.47568934      0.01734694
 H      2.84989724      2.22222002      0.06703099
