17

C       0.87321458      0.20136242      0.16951255
C       2.35019080      0.12230008      0.11486416
C       3.12519548     -0.97304990      0.07199837
C       4.56051912     -0.55312073      0.10978439
N       5.31081499     -1.07614350     -1.09854519
C       4.51026631      0.94698564      0.09295693
C       3.22798862      1.31475900      0.12391487
H       0.41080011     -0.78378698      0.12831005
H       0.49069834      0.80514208     -0.65865251
H       0.55361991      0.69761257      1.09069354
H       2.79587769     -2.00379577      0.09208709
H       5.09227162     -0.93947829      0.98637052
H       4.85255384     -0.73804372     -1.94837799
H       5.31091767     -2.09767118     -1.12414012
H       6.28231194     -0.75876693     -1.11017949
H       5.38305634      1.58604334      0.11555324
H       2.86122951      2.33257402      0.16523729
