21

 C      0.60382962     -0.06129690     -0.34395841
 C      2.08817266     -0.05483743     -0.08054202
 C      2.49260485     -0.08948578      1.37704313
 C      2.07581909      1.17285841      2.10070588
 N      2.51406457      1.12346853      3.54415112
 C      2.97437095     -0.79653984     -1.03536904
 C      2.98521826      0.70105002     -1.02206265
 H      0.40828102     -0.10336565     -1.41621050
 H      0.10396111      0.83760454      0.03068620
 H      0.12435149     -0.93367287      0.11021286
 H      3.58050466     -0.20531752      1.44523342
 H      2.03959580     -0.96343144      1.86387670
 H      0.99441092      1.30768413      2.11663620
 H      2.53462702      2.06138505      1.66550915
 H      2.10204858      0.31766908      4.01980754
 H      2.24152117      1.96409196      4.05726305
 H      3.52968418      1.02913276      3.61231130
 H      3.84098012     -1.31547834     -0.64351032
 H      2.49763656     -1.29605305     -1.86913156
 H      2.52077115      1.22485107     -1.84803364
 H      3.86678327      1.19313066     -0.62567169
