21

C       0.65540119     -0.11500149     -0.50772235
C       2.13974423     -0.10854202     -0.24430596
C       2.54417642     -0.14319037      1.21327919
C       2.12739066      1.11915382      1.93694194
N       2.56563614      1.06976394      3.38038718
C       3.02594252     -0.85024443     -1.19913298
C       3.03678983      0.64734543     -1.18582659
H       0.45985259     -0.15707024     -1.57997444
H       0.15553268      0.78389995     -0.13307774
H       0.17592306     -0.98737746     -0.05355108
H       3.63207623     -0.25902211      1.28146948
H       2.09116737     -1.01713603      1.70011276
H       1.04598249      1.25397954      1.95287226
H       2.58619859      2.00768046      1.50174521
H       2.15362015      0.26396449      3.85604360
H       2.29309274      1.91038737      3.89349911
H       3.58125575      0.97542817      3.44854736
H       3.89255169     -1.36918293     -0.80727426
H       2.54920813     -1.34975764     -2.03289550
H       2.57234272      1.17114648     -2.01179758
H       3.91835484      1.13942607     -0.78943563
