15
1775.log
C     -1.236571   -1.572056   -0.541128
C     -0.696388   -0.213768   -0.860805
C     -0.124306    0.696336    0.179803
C     -0.039019    0.303670    1.560125
N      0.000059    0.000230    2.669029
N      0.724452   -0.000153   -0.771772
C      1.340855    0.832061   -1.781635
H     -2.295328   -1.513859   -0.278454
H     -0.695214   -2.016323    0.294791
H     -1.135340   -2.231887   -1.406072
H     -1.208961    0.323843   -1.659783
H     -0.281141    1.763172    0.034778
H      2.257678    1.268334   -1.381181
H      0.685765    1.646056   -2.128619
H      1.603562    0.209791   -2.639215
