16

 C     -1.23132642     -1.58710039     -0.50851777
 C     -0.74179268     -0.21772033     -0.83804753
 C     -0.19506868      0.71566000      0.18509329
 C     -0.06726904      0.31131063      1.55572034
 N      0.03930080     -0.03640220      2.64526076
 N      0.72268887      0.04665900     -0.77920846
 C      1.44254915      0.81391330     -1.80668362
 H     -2.29921352     -1.53023752     -0.28788489
 H     -0.73260744     -2.00608381      0.36773811
 H     -1.10004992     -2.25730718     -1.35941821
 H     -1.18647106      0.27111049     -1.69899155
 H     -0.28839537      1.78340876      0.01494335
 H      1.26146311     -0.71121862     -0.36446729
 H      0.79189239      1.60286610     -2.18027547
 H      1.70947341      0.13928755     -2.61927577
 H      2.33779091      1.24754782     -1.36274050
