18
1793.log
C      2.470440   -0.000303    0.334629
C      1.132449   -0.667996    0.240955
C      0.449496   -1.254710    1.417552
N      0.000028    0.000557    0.848560
C     -1.249548   -0.049483    0.111744
C     -1.349506    1.091825   -0.844967
C     -1.621937    0.969319   -2.135864
H      3.278234   -0.725618    0.205289
H      2.588007    0.478740    1.308260
H      2.576899    0.767503   -0.436014
H      0.927583   -1.167530   -0.706245
H      0.907470   -1.191564    2.399936
H     -0.169196   -2.134598    1.255245
H     -2.062621    0.016193    0.845541
H     -1.377214   -1.002009   -0.430180
H     -1.179619    2.076295   -0.415297
H     -1.785482   -0.003290   -2.590450
H     -1.698914    1.833775   -2.785250
