16
1794.log
C      2.422326   -0.000400    0.078477
C      1.102873   -0.705257    0.153325
C      0.523698   -1.185812    1.429179
N      0.000217    0.000379    0.776279
C     -1.298234   -0.165365    0.148537
C     -1.493361    0.769239   -0.950966
C     -1.658331    1.526133   -1.867048
H      3.239456   -0.716378   -0.042651
H      2.597319    0.574877    0.989213
H      2.445013    0.689976   -0.768165
H      0.842845   -1.300835   -0.721837
H      1.046387   -1.012826    2.364390
H     -0.080619   -2.089942    1.401371
H     -2.069741    0.004759    0.907194
H     -1.446670   -1.191204   -0.232139
H     -1.804119    2.204341   -2.674114
