17

 C      2.43530533      0.00626337      0.06973338
 C      1.15576576     -0.75477177      0.18192932
 C      0.58592035     -1.15770102      1.48147405
 N     -0.02886596     -0.03935217      0.73563298
 C     -1.37426186     -0.16024209      0.12355145
 C     -1.52411482      0.78083036     -0.96355677
 C     -1.65056080      1.56389031     -1.86098140
 H      2.43338327      0.64695781     -0.81296291
 H      3.25889365     -0.70340532     -0.02924250
 H      2.62649045      0.61414653      0.95718806
 H      0.87241741     -1.35843694     -0.67432348
 H     -0.04249590     -2.03700752      1.54812022
 H      1.08947796     -0.86536189      2.39490748
 H      0.17030809      0.89216630      1.09008454
 H     -2.11142122      0.01373421      0.91240891
 H     -1.48356031     -1.19276477     -0.21842869
 H     -1.77583003      2.25910572     -2.66154120
