16

C       1.19011702      1.18083099     -0.27423962
C       2.64507207      1.00044939      0.00464116
C       3.45080777     -0.06215754     -0.62279023
N       3.60515504      1.33405865     -1.09624436
C       4.84104136      2.09994037     -0.84821184
C       4.53751210      3.52089156     -0.80072854
N       4.25605996      4.63305821     -0.76670605
H       0.90184261      2.22933349     -0.18798740
H       0.62170872      0.61263986      0.46488213
H       0.91424370      0.80756642     -1.26326280
H       3.00832340      1.37928933      0.95521463
H       4.32444883     -0.45263355     -0.11554834
H       2.98744667     -0.72496449     -1.34385044
H       3.16350220      1.54511733     -1.98768003
H       5.55747704      1.88145307     -1.64410127
H       5.26867237      1.76905376      0.10077071
