18
1798.log
C      1.161160   -0.000665   -1.948012
C      0.214354    0.549546   -0.899680
C      0.848264    0.800720    0.503532
N      0.000638   -0.000356    1.415410
C     -1.354762    0.322249    0.846871
C     -0.880172   -0.408674   -0.418632
C     -0.116310   -1.261930    0.608276
H      1.967784    0.707503   -2.156409
H      0.643056   -0.195399   -2.890912
H      1.625369   -0.935948   -1.623101
H     -0.243457    1.467167   -1.284264
H      0.825542    1.849223    0.805951
H      1.881164    0.448715    0.561015
H     -1.588717    1.388744    0.784471
H     -2.129120   -0.206318    1.404986
H     -1.557249   -0.823048   -1.167724
H      0.833555   -1.724894    0.330624
H     -0.746050   -1.982362    1.132498
