17

 C     -2.07350252      1.02055541      0.00000000
 C     -0.86238199      0.49847949      0.00000000
 C      0.47548741      1.21793251      0.00000000
 N      1.36071111      0.00209888     -0.00000000
 C      0.71294723     -0.89437216      1.03845900
 C     -0.43064348     -0.94386896     -0.00000000
 C      0.71294723     -0.89437216     -1.03845900
 H     -2.95497462      0.39104817      0.00000000
 H     -2.23160274      2.09273824      0.00000000
 H      0.67571967      1.81046169     -0.89318600
 H      0.67571967      1.81046169      0.89318600
 H      2.36552816      0.16861984     -0.00000000
 H      1.28242516     -1.81727408      1.13209600
 H      0.54856585     -0.40890844      1.99863600
 H     -1.18168540     -1.72520312     -0.00000000
 H      0.54856585     -0.40890844     -1.99863600
 H      1.28242516     -1.81727408     -1.13209600
