17

C      -1.38146627     -1.26999335     -0.00000235
C      -0.41915777     -0.09931632     -0.00000788
C       0.71646872     -0.11307824      1.05860762
N       1.67794118      0.38143379     -0.00000284
C       0.71647671     -0.11309394     -1.05861338
C      -1.08971422      1.19294204     -0.00001870
C      -1.62454280      2.26656600      0.00001244
H      -2.02384584     -1.23170891     -0.88078207
H      -2.02385281     -1.23169618      0.88077193
H      -0.84096336     -2.21904397      0.00000650
H       1.01033152     -1.12153862      1.34710058
H       0.64350816      0.54339443      1.92167860
H       1.73595278      1.40033176     -0.00000996
H       2.62156649     -0.00293623      0.00000378
H       0.64352314      0.54336601     -1.92169540
H       1.01034255     -1.12155918     -1.34708942
H      -2.11860832      3.21265474      0.00004057
