17

 C     -1.22478035     -1.53096606      0.00000123
 C     -0.26247185     -0.36028903     -0.00000430
 C      0.87315464     -0.37405095      1.05861120
 N      1.83462710      0.12046108      0.00000074
 C      0.87316263     -0.37406665     -1.05860980
 C     -0.93302830      0.93196933     -0.00001512
 C     -1.46785688      2.00559329      0.00001603
 H     -1.86715992     -1.49268162     -0.88077849
 H     -1.86716689     -1.49266889      0.88077551
 H     -0.68427744     -2.48001668      0.00001008
 H      1.16701744     -1.38251133      1.34710416
 H      0.80019408      0.28242172      1.92168218
 H      1.89263870      1.13935905     -0.00000638
 H      2.77825241     -0.26390894      0.00000736
 H      0.80020906      0.28239330     -1.92169182
 H      1.16702847     -1.38253189     -1.34708584
 H     -1.96192240      2.95168203      0.00004416
