21

 C      2.09836618     -0.01644227     -0.22874479
 C      0.74682137     -0.66799858     -0.35377747
 C     -0.25516846     -0.69726377      0.76335067
 N      0.06442895      0.03159577      2.01351645
 C     -0.55297446      0.08739165     -0.48524030
 C     -0.56654696      1.59667895     -0.44953242
 C     -1.61322661     -0.50173774     -1.38246015
 H      2.81142390     -0.68286271      0.26206463
 H      2.09314203      0.93308587      0.31263034
 H      2.49366167      0.20457000     -1.22157773
 H      0.77735073     -1.60429961     -0.90277630
 H     -0.80792467     -1.60089399      0.98855835
 H      0.52657567      0.91814329      1.80217148
 H      0.68959121     -0.50919122      2.61601098
 H     -0.78163894      0.24641491      2.54575008
 H     -1.52804132      1.97062158     -0.08817261
 H     -0.42996255      1.98331087     -1.46148327
 H      0.22693691      2.05299434      0.14896532
 H     -2.61027660     -0.16727947     -1.08607940
 H     -1.60024389     -1.59335589     -1.36240398
 H     -1.44669746     -0.18685412     -2.41493607
