19

 C      2.37008157      0.02927052      0.20646329
 C      0.99912759     -0.43377392     -0.20123597
 C     -0.15758379     -0.46842010      0.74848986
 N      0.05016923     -0.00384545      2.14173773
 C     -0.14223349      0.54550140     -0.34379466
 C     -1.10985744      0.48147704     -1.46375997
 C     -2.27698968     -0.14358448     -1.44492629
 H      2.92504499     -0.75143896      0.73238502
 H      2.35396807      0.93099341      0.82955012
 H      2.94621760      0.29680639     -0.68057795
 H      0.98775013     -1.26391680     -0.90014548
 H     -0.85896692     -1.29148979      0.72098051
 H      0.83234214      0.65386379      2.18597741
 H      0.27471622     -0.78336531      2.76508349
 H     -0.77943079      0.46797889      2.50963139
 H      0.12791914      1.55678190     -0.03850001
 H     -0.79428201      1.00504166     -2.36218472
 H     -2.64734905     -0.66989234     -0.57072349
 H     -2.92031864     -0.14898719     -2.31577951
