18
1804.log
C      2.374908    0.000659    0.132857
C      0.985568   -0.441810   -0.218142
C     -0.135274   -0.442306    0.797325
N      0.000655   -0.000182    2.153088
C     -0.151189    0.557785   -0.307694
C     -1.113944    0.525234   -1.426811
C     -2.228010   -0.192755   -1.487649
H      2.974619   -0.837204    0.500889
H      2.367286    0.765128    0.913476
H      2.891468    0.420538   -0.734306
H      0.928913   -1.245967   -0.946323
H     -0.835907   -1.265247    0.698454
H      0.349549    0.945851    2.210780
H      0.625659   -0.597141    2.680371
H      0.144592    1.563339   -0.010992
H     -0.851043    1.151287   -2.278238
H     -2.549213   -0.823180   -0.665408
H     -2.862632   -0.168944   -2.365599
