19

C       2.21714392      0.02974323      0.02289796
C       0.84618994     -0.43330121     -0.38480130
C      -0.31052145     -0.46794739      0.56492453
N      -0.10276843     -0.00337274      1.95817240
C      -0.29517114      0.54597411     -0.52735999
C      -1.26279509      0.48194975     -1.64732531
C      -2.42992733     -0.14311177     -1.62849163
H       2.77210733     -0.75096625      0.54881969
H       2.20103041      0.93146612      0.64598479
H       2.79327995      0.29727910     -0.86414328
H       0.83481248     -1.26344409     -1.08371081
H      -1.01190457     -1.29101708      0.53741518
H       0.67940448      0.65433650      2.00241208
H       0.12177856     -0.78289260      2.58151816
H      -0.93236845      0.46845160      2.32606605
H      -0.02501851      1.55725461     -0.22206534
H      -0.94721966      1.00551437     -2.54575006
H      -2.80028670     -0.66941963     -0.75428883
H      -3.07325629     -0.14851448     -2.49934485
