17

C       1.92123185      0.01850430     -0.21314289
C       0.53872082     -0.48200761     -0.52505722
C      -0.56267653     -0.49234712      0.48138270
N      -0.30038073      0.01690120      1.84807135
C      -0.61007661      0.49683000     -0.64852589
C      -1.62309406      0.35670540     -1.64863083
C      -2.46684073      0.23310535     -2.49115819
H       2.43763859      0.26669639     -1.14141950
H       2.51780714     -0.73759080      0.30263178
H       1.92444074      0.93784631      0.38324047
H       0.49840222     -1.32697880     -1.20349422
H      -1.28177111     -1.30056457      0.49920812
H       0.46966627      0.69029363      1.84222258
H      -0.03388707     -0.74208591      2.48102676
H      -1.12417256      0.48081655      2.23983913
H      -0.34911585      1.52304468     -0.39374472
H      -3.21377578      0.12941142     -3.24536243
