16
1805.log
C      2.300264   -0.000130    0.103940
C      0.914120   -0.504598   -0.164901
C     -0.159290   -0.500890    0.889438
N      0.000188    0.000041    2.219412
C     -0.244301    0.473871   -0.253783
C     -1.246389    0.341361   -1.264626
C     -2.082544    0.218584   -2.119503
H      2.939949   -0.800397    0.486878
H      2.302778    0.803528    0.843951
H      2.762729    0.388970   -0.806342
H      0.852253   -1.325780   -0.871863
H     -0.865144   -1.322850    0.832694
H      0.420162    0.918910    2.233491
H      0.579337   -0.615302    2.777642
H      0.007251    1.500313    0.002904
H     -2.825990    0.112127   -2.872977
