20
1806.log
C      1.315193   -0.000180   -1.718952
C      0.769340   -0.502644   -0.405726
C      1.352720    0.020006    0.914024
N      0.000203   -0.000475    1.490149
C     -0.607312   -0.017024    0.136090
C     -1.008435    1.367581   -0.347840
C     -1.759161   -0.990338    0.003254
H      2.337780   -0.356945   -1.871793
H      1.338501    1.091256   -1.762233
H      0.717453   -0.356715   -2.562675
H      0.772690   -1.596397   -0.396427
H      1.783153    1.024470    0.797429
H      2.079884   -0.610483    1.433264
H     -0.243566    0.804084    2.055990
H     -0.191598    2.085913   -0.242594
H     -1.857176    1.733218    0.238490
H     -1.313844    1.355624   -1.397800
H     -1.474714   -1.968358    0.395098
H     -2.058290   -1.102748   -1.043442
H     -2.631047   -0.641503    0.564893
