21

C       1.38469067     -0.01988345     -1.62529159
C       0.81791805     -0.55474889     -0.33476969
C       1.42405427     -0.07173779      0.98683945
N       0.04517986      0.01269318      1.59648456
C      -0.57192349     -0.06637869      0.17261449
C      -0.96722649      1.32640866     -0.25612885
C      -1.70902728     -1.05022409      0.10357324
H       0.78806842     -0.34584179     -2.47930662
H       2.39734856     -0.39911988     -1.77695529
H       1.43207470      1.07058529     -1.63623591
H       0.81312417     -1.64830371     -0.35810580
H       1.84864583      0.92990786      0.93595135
H       2.09015418     -0.73031406      1.53980757
H      -0.18751065     -0.80320591      2.16077361
H      -0.16860905      0.85071006      2.13530444
H      -1.23705671      1.31301773     -1.31304548
H      -0.16045776      2.05249394     -0.13386729
H      -1.84073914      1.67120867      0.30244751
H      -1.42238158     -2.03488151      0.48170979
H      -2.00341178     -1.17551575     -0.94062818
H      -2.58527079     -0.69609187      0.65182568
