19

 C      1.03220864     -0.11478971      0.12185076
 C      2.53029450      0.02154120      0.03918886
 C      3.21694126      1.15600724      0.81261705
 N      4.31924245      0.20339712      1.21697244
 C      3.39829766     -0.97850438      0.83872643
 C      4.07135423     -2.11291683      0.17480228
 C      4.06058724     -3.34492562      0.66689616
 H      0.53858006      0.70963228     -0.39582694
 H      0.68824461     -0.11945327      1.15922272
 H      0.70385437     -1.04206862     -0.35121783
 H      2.86033583      0.02992982     -1.00417739
 H      2.67487681      1.45942711      1.70787476
 H      3.58282396      2.02970061      0.27810210
 H      4.64994473      0.24152542      2.18000567
 H      5.12919616      0.25430839      0.59947681
 H      2.90284534     -1.28370947      1.76283359
 H      4.55036603     -1.90720498     -0.78078402
 H      3.57015105     -3.58247929      1.60573820
 H      4.53090427     -4.16589027      0.13927289
