17

 C      1.83940235      0.01926740     -1.39790859
 C      0.87790545     -0.46873780     -0.34716273
 C      1.33263880     -0.50008428      1.12043478
 N     -0.01279149      0.04749672      1.54719751
 C     -0.26215940      0.48661113      0.09573273
 C     -1.60713009      0.29425210     -0.36287066
 C     -2.72450863      0.11332075     -0.75849802
 H      1.33526987      0.12649889     -2.35997295
 H      2.65440200     -0.69405839     -1.53318818
 H      2.27360281      0.98521431     -1.12773518
 H      0.44464964     -1.43187644     -0.62756945
 H      2.09804945      0.23940635      1.35404150
 H      1.56961117     -1.45268660      1.58796413
 H     -0.66922313     -0.68439727      1.82017234
 H     -0.02587969      0.77728458      2.25883644
 H      0.04978879      1.53229405      0.02682631
 H     -3.71935552     -0.04166824     -1.11489485
