17

C       1.43904237      0.05648741     -1.42330448
C       0.47754547     -0.43151779     -0.37255862
C       0.93227882     -0.46286427      1.09503889
N      -0.41315147      0.08471673      1.52180162
C      -0.66251938      0.52383114      0.07033684
C      -2.00749007      0.33147211     -0.38826655
C      -3.12486861      0.15054076     -0.78389391
H       0.93490989      0.16371890     -2.38536884
H       2.25404202     -0.65683838     -1.55858407
H       1.87324283      1.02243432     -1.15313107
H       0.04428966     -1.39465643     -0.65296534
H       1.69768947      0.27662636      1.32864561
H       1.16925119     -1.41546659      1.56256824
H      -1.06958311     -0.64717726      1.79477645
H      -0.42623967      0.81450459      2.23344055
H      -0.35057119      1.56951406      0.00143042
H      -4.11971550     -0.00444823     -1.14029074
