16

 C      0.89616882     -0.09172491      0.15614168
 C      2.40778668     -0.09166243      0.04994018
 C      3.19319713      0.97032316      0.86400601
 N      4.20006120     -0.09164916      1.25265920
 C      3.19327829     -1.15366283      0.86390943
 C      2.87210522     -0.09158190     -1.33430290
 N      3.29227064     -0.09153592     -2.40392859
 H      0.47965437     -0.97329397     -0.33318158
 H      0.47958746      0.78985703     -0.33310165
 H      0.58786023     -0.09178469      1.20331900
 H      2.65610305      1.28835461      1.75623376
 H      3.63436402      1.81764064      0.34496014
 H      5.01294920     -0.09159035      0.63438867
 H      4.52874127     -0.09168140      2.21778476
 H      3.63450877     -2.00089935      0.34478597
 H      2.65620807     -1.47181739      1.75610770
