19

 C      1.02088187      0.21576616      0.35076014
 C      2.47805902     -0.05612811      0.00915762
 C      2.77989286     -1.53350198     -0.28373872
 N      2.98063797     -1.63826943     -1.78247888
 C      3.36126988     -0.28678957     -2.28266250
 C      2.21381196      0.63933339     -2.48022882
 C      3.00923145      0.69185657     -1.21192685
 H      0.85807662      1.28316232      0.50546783
 H      0.73902141     -0.29964172      1.27077844
 H      0.33738675     -0.11362951     -0.43590294
 H      3.08926288      0.23651279      0.86552043
 H      3.71937903     -1.84749198      0.16944999
 H      1.99316320     -2.22561202      0.01537040
 H      3.70566648     -2.32100588     -2.00136347
 H      2.13052813     -1.96414814     -2.24446958
 H      4.25450651     -0.27198642     -2.89129045
 H      1.20748190      0.23482337     -2.45647518
 H      2.35410042      1.43209571     -3.20345589
 H      3.65188285      1.54682598     -1.04810147
