17

C       1.70168751     -0.07013093     -1.66912182
C       0.75566218      0.00802845     -0.74673426
C       0.89465114      0.72684691      0.56520607
N      -0.00978780     -0.05879324      1.49348146
C      -1.06135242     -0.68926685      0.65205574
C      -1.74051009      0.21186855     -0.31154673
C      -0.57902364     -0.63328687     -0.76857453
H       2.67246111      0.39049769     -1.52971702
H       1.53092307     -0.58879031     -2.60439853
H       1.90449303      0.74337836      0.97090917
H       0.51126016      1.74774675      0.53307850
H       0.52935426     -0.79511218      1.95215140
H      -0.40320923      0.53159360      2.22803450
H      -1.54688803     -1.53634594      1.11650927
H      -1.62016857      1.28592453     -0.23669068
H      -2.72812165     -0.10369211     -0.62185231
H      -0.75755075     -1.46058113     -1.44195680
