16
1818.log
C      1.695072   -0.000124   -1.597857
C      0.764692    0.062539   -0.653840
C      0.900199    0.744443    0.683452
N      0.000133   -0.000124    1.566270
C     -1.031664   -0.590268    0.753556
C     -1.747259    0.254272   -0.254063
C     -0.558987   -0.590197   -0.670116
H      2.671060    0.451507   -1.461139
H      1.511155   -0.506837   -2.538152
H      0.616121    1.802859    0.579851
H      1.927252    0.720190    1.055921
H     -0.383947    0.590298    2.292698
H     -1.530984   -1.453673    1.177595
H     -1.628423    1.331122   -0.220112
H     -2.715941   -0.084066   -0.601652
H     -0.726901   -1.430040   -1.331471
