17

C      -1.58179990      0.34089097      1.56464700
C      -0.58267489      0.05821776      0.73712000
C       0.80041443     -0.31781237      1.19505500
N       1.64912438      0.02247441      0.00000000
C       0.80041443     -0.31781237     -1.19505500
C      -0.58267489      0.05821776     -0.73712000
C      -1.58179990      0.34089097     -1.56464700
H      -2.57030361      0.58459635      1.19545800
H      -1.45056173      0.33021328      2.63992000
H       1.16111628      0.21796902      2.07153300
H       0.90676893     -1.39348202      1.35832300
H       1.84920642      1.02411427      0.00000000
H       2.54208590     -0.46983464      0.00000000
H       0.90676893     -1.39348202     -1.35832300
H       1.16111628      0.21796902     -2.07153300
H      -1.45056173      0.33021328     -2.63992000
H      -2.57030361      0.58459635     -1.19545800
