21

C       2.08554295     -0.03976167     -1.36040734
C       0.65277391     -0.39043424     -1.02069739
C       0.46957843     -1.23036969      0.25284503
N       0.04098490     -0.00128022      1.01717152
C      -1.04046779     -0.10876831      2.01038856
C      -0.15716900      0.72996107     -0.33010787
C      -1.59407722      0.86731256     -0.74461822
H       2.62960141     -0.92274485     -1.70009008
H       2.62450498      0.37223815     -0.50125560
H       2.12197010      0.70094261     -2.16129812
H       0.14097523     -0.80501348     -1.88927629
H       1.34287139     -1.71428842      0.68813076
H      -0.36574257     -1.92842364      0.21847698
H       0.85617839      0.40345140      1.47401144
H      -1.92532182     -0.52850067      1.53839969
H      -1.26541995      0.87922865      2.41042439
H      -0.70895948     -0.76464709      2.81546463
H       0.33592103      1.70231703     -0.28232072
H      -2.10514116     -0.09514674     -0.81782032
H      -1.60733952      1.31732528     -1.73963490
H      -2.15843021      1.52630227     -0.08238916
