19

 C      0.86099249      0.02415626     -0.28799315
 C      2.35157681      0.00238773     -0.00507346
 C      3.17928325      0.01499745     -1.28137494
 N      2.68584836     -1.27889444      0.78751580
 C      3.68348083     -0.93772494      1.86171940
 C      3.52842213      0.54284593      1.97276815
 C      2.81081214      1.04045401      0.97956021
 H      0.56231311     -0.81211191     -0.92526432
 H      0.60961528      0.94332394     -0.81862942
 H      0.27383721      0.00673286      0.63391102
 H      2.86445792     -0.77421440     -1.96942608
 H      4.24681191     -0.08440224     -1.07315358
 H      3.03469812      0.96884607     -1.78986375
 H      3.02143167     -2.01512088      0.16719515
 H      1.82642179     -1.61712508      1.22039977
 H      4.68119736     -1.24016481      1.53372668
 H      3.44054648     -1.49281441      2.76883009
 H      3.99291510      1.10341374      2.77239253
 H      2.58434246      2.08724148      0.82474151
