21

C       1.53048269     -0.00014915     -1.43161190
C       0.38694010     -0.00556153     -0.43553945
C       0.99148109      0.01460722      0.95395938
N      -0.06291985      0.01099937      2.03066008
C      -0.72165649      1.06264729     -0.64925095
C      -1.80177051     -0.03416592     -0.54864868
C      -0.69434033     -1.10505214     -0.62966646
H       2.17298351     -0.87694907     -1.31113015
H       2.15077150      0.89450253     -1.32700859
H       1.13905402     -0.01418269     -2.44964267
H       1.61329820     -0.86483731      1.13356609
H       1.59085162      0.91256868      1.11753614
H      -0.65151368     -0.82104230      1.94980275
H      -0.67227443      0.82635740      1.93500080
H       0.34790077      0.02457175      2.96505100
H      -0.65985990      1.50262888     -1.64437518
H      -0.77004594      1.90080856      0.05601047
H      -2.35831816     -0.03266480      0.39380137
H      -2.54226500     -0.05070422     -1.34613188
H      -0.72175332     -1.93128573      0.09063723
H      -0.62124989     -1.56124579     -1.61669042
