21

 C      1.56672773      0.00089254     -1.36653462
 C      0.42318514     -0.00451984     -0.37046217
 C      1.02772613      0.01564891      1.01903666
 N     -0.02667480      0.01204106      2.09573736
 C     -0.68541145      1.06368898     -0.58417367
 C     -1.76552547     -0.03312423     -0.48357139
 C     -0.65809529     -1.10401045     -0.56458918
 H      2.20922855     -0.87590738     -1.24605287
 H      2.18701654      0.89554422     -1.26193131
 H      1.17529906     -0.01314100     -2.38456539
 H      1.64954325     -0.86379561      1.19864337
 H      1.62709666      0.91361037      1.18261342
 H     -0.61526863     -0.82000061      2.01488003
 H     -0.63602938      0.82739909      2.00007808
 H      0.38414582      0.02561345      3.03012828
 H     -0.62361486      1.50367057     -1.57929790
 H     -0.73380090      1.90185025      0.12108775
 H     -2.32207312     -0.03162311      0.45887866
 H     -2.50601996     -0.04966253     -1.28105459
 H     -0.68550828     -1.93024404      0.15571451
 H     -0.58500485     -1.56020410     -1.55161314
