19

C       0.97251935      0.14587877     -0.18733386
C       2.44460079      0.31540463     -0.01175680
N       3.33255737     -0.68372703     -0.69591415
C       3.33892986      0.76216317     -1.08982067
C       4.59901603      1.53870782     -0.82755321
C       4.31646852      3.01101147     -0.87729050
C       4.44919988      3.82200372      0.16068242
H       0.48101574      1.08124624      0.08699681
H       0.58389671     -0.64062102      0.46129515
H       0.70802440     -0.07751563     -1.22353240
H       2.79385148      0.50875155      0.99822991
H       4.14009157     -1.03942192     -0.19622388
H       2.89640606     -1.35744582     -1.31586346
H       2.88022328      0.90153776     -2.06442795
H       5.34433080      1.26889856     -1.58427561
H       5.00599277      1.27163158      0.15345865
H       4.00148879      3.40859530     -1.83899288
H       4.78265153      3.46510371      1.13029374
H       4.24889537      4.88275785      0.07324011
