19

 C      0.84942595      0.06149769     -0.14891860
 C      2.32150739      0.23102355      0.02665845
 N      3.20946397     -0.76810811     -0.65749890
 C      3.21583646      0.67778209     -1.05140542
 C      4.47592263      1.45432674     -0.78913796
 C      4.19337512      2.92663039     -0.83887525
 C      4.32610648      3.73762264      0.19909767
 H      0.35792234      0.99686516      0.12541207
 H      0.46080331     -0.72500210      0.49971041
 H      0.58493100     -0.16189671     -1.18511714
 H      2.67075808      0.42437047      1.03664516
 H      4.01699817     -1.12380300     -0.15780863
 H      2.77331266     -1.44182690     -1.27744821
 H      2.75712988      0.81715668     -2.02601270
 H      5.22123740      1.18451748     -1.54586036
 H      4.88289937      1.18725050      0.19187390
 H      3.87839539      3.32421422     -1.80057763
 H      4.65955813      3.38072263      1.16870899
 H      4.12580197      4.79837677      0.11165537
