17

C       2.09727938     -0.00683621      0.58068304
C       0.67886841     -0.46354214      0.50964736
N      -0.25296565      0.02186014      1.58473906
C      -0.43431647      0.42902888      0.15742404
C      -1.67482200     -0.06432287     -0.54125503
C      -1.47260590     -0.00500191     -1.97781286
C      -1.28526846      0.05701979     -3.15929354
H       2.55948396     -0.16565865     -0.39550218
H       2.66118644     -0.58053772      1.31756957
H       2.17286251      1.05744010      0.81528622
H       0.51655083     -1.51938182      0.31302824
H      -0.91773629     -0.63206806      1.98393783
H       0.09964648      0.70905313      2.24230909
H      -0.18961946      1.47539395      0.00491517
H      -2.53199603      0.55344586     -0.25357793
H      -1.89800248     -1.09463591     -0.23732316
H      -1.13588268      0.10817459     -4.21429849
