20
1873.log
C      2.015981   -0.000473   -0.630528
C      0.827831   -0.655003    0.016171
N     -0.000132    0.000071    1.020959
C      0.274861    1.358566    1.422326
C     -0.588736   -0.298630   -0.280980
C     -0.924167    0.801316   -1.255174
C     -1.628580   -1.388906   -0.236326
H      2.868741    0.010324    0.054543
H      1.833473    1.025411   -0.947901
H      2.315154   -0.569460   -1.514685
H      1.011983   -1.701751    0.259007
H      1.010877    1.343558    2.230246
H     -0.641000    1.800610    1.822160
H      0.654072    2.025661    0.637857
H     -0.169200    1.583516   -1.313533
H     -1.872506    1.273770   -0.980656
H     -1.046394    0.385232   -2.258782
H     -1.354041   -2.146236    0.499038
H     -1.737235   -1.869851   -1.213089
H     -2.603518   -0.980613    0.047747
