21

 C      2.02979456     -0.02128049     -0.60593952
 C      0.81935088     -0.67742255     -0.02653877
 N      0.00785584      0.04072924      1.01333155
 C      0.28331766      1.40300648      1.47881663
 C     -0.59066447     -0.32557633     -0.32796728
 C     -0.94637760      0.80793483     -1.24346110
 C     -1.62621888     -1.41045020     -0.23179352
 H      2.35630080     -0.61702528     -1.46079280
 H      2.84909447     -0.01033547      0.11518551
 H      1.85596828      0.99253927     -0.96104638
 H      0.97709186     -1.70970803      0.27260918
 H     -0.31240532     -0.56634222      1.76005262
 H      0.66619648      2.01188380      0.66679495
 H      1.02560052      1.35743313      2.27519473
 H     -0.63985371      1.84027763      1.85726224
 H     -1.88779943      1.26812688     -0.93732686
 H     -1.09178994      0.39889352     -2.24518707
 H     -0.18423303      1.58055377     -1.31544552
 H     -2.59902206     -1.00126403      0.04801812
 H     -1.34711624     -2.18690388      0.48487119
 H     -1.73285196     -1.88884053     -1.20717112
