19

C       2.06733366     -0.08951594      0.44383492
C       0.61535301     -0.43533864      0.56043658
N      -0.09957415      0.12461698      1.79772201
C      -1.31031919      0.40412245      0.93350640
C      -0.43991578      0.26489738     -0.32871780
C      -0.98944017     -0.48730686     -1.48429720
C      -1.00480530     -0.02434705     -2.72562249
H       2.66509152     -0.56465309      1.22448645
H       2.22943316      0.99106904      0.47236101
H       2.43343422     -0.45315714     -0.51880694
H       0.44786409     -1.51443589      0.58064652
H       0.34521489      0.97881719      2.13272939
H      -0.22556381     -0.50284228      2.59032065
H      -1.78252923      1.35877522      1.15334926
H      -2.02296512     -0.41012778      1.05905206
H      -0.06843250      1.24245893     -0.64880267
H      -1.39548320     -1.47438984     -1.26868798
H      -0.61186522      0.95607434     -2.97572515
H      -1.41435687     -0.60986858     -3.53947500
