19

 C      2.20368936     -0.06772270      0.53005886
 C      0.75170871     -0.41354540      0.64666052
 N      0.03678155      0.14641022      1.88394595
 C     -1.17396349      0.42591569      1.01973034
 C     -0.30356008      0.28669062     -0.24249386
 C     -0.85308447     -0.46551362     -1.39807326
 C     -0.86844960     -0.00255381     -2.63939855
 H      2.80144722     -0.54285984      1.31071039
 H      2.36578886      1.01286229      0.55858495
 H      2.56978992     -0.43136389     -0.43258300
 H      0.58421980     -1.49264265      0.66687046
 H      0.48157059      1.00061043      2.21895333
 H     -0.08920811     -0.48104904      2.67654459
 H     -1.64617353      1.38056845      1.23957320
 H     -1.88660942     -0.38833455      1.14527600
 H      0.06792320      1.26425217     -0.56257873
 H     -1.25912749     -1.45259660     -1.18246404
 H     -0.47550952      0.97786758     -2.88950121
 H     -1.27800116     -0.58807534     -3.45325106
