19

 C      0.94593563      0.12413400      0.00332643
 C      2.44917078      0.05128162      0.08604292
 N      3.01701169      1.14824853      0.96362805
 C      4.42642224      0.73323435      1.27141537
 C      4.32021723     -0.77529213      1.45685091
 C      3.06498060     -1.17536340      0.71100602
 C      2.55927782     -2.39461995      0.62940129
 H      0.58590372     -0.65244362     -0.67184113
 H      0.60797163      1.08056901     -0.40146836
 H      0.48309458     -0.04298981      0.97874757
 H      2.89702571      0.23399303     -0.89812394
 H      2.46681373      1.19850987      1.82384575
 H      2.96623140      2.06462000      0.51886623
 H      4.78819590      1.28362720      2.13808776
 H      5.02625511      1.00356249      0.40235993
 H      5.21026923     -1.27326175      1.06984131
 H      4.23966719     -1.03707000      2.51449265
 H      1.64059159     -2.60320574      0.09479412
 H      3.05641186     -3.24035748      1.08957223
