21

 C      0.38970364      2.11374958      0.00047346
 C      0.25397164      0.60991085      0.00004397
 N      1.67282385      0.02826656     -0.00236356
 C     -0.46967919     -0.00323857      1.19343752
 C     -0.79927145     -1.44339827      0.77403146
 C     -0.78858515     -1.44563522     -0.77413209
 C     -0.47281534     -0.00277993     -1.19149078
 H      0.91035757      2.47902457     -0.88897575
 H      0.91319974      2.47817839      0.88861981
 H     -0.60473234      2.56066101      0.00241643
 H      2.19038487      0.33177959     -0.82893447
 H      1.63989686     -0.99333227     -0.00508516
 H      2.19141691      0.32756128      0.82507159
 H     -1.38338426      0.57698693      1.33903832
 H      0.09459862      0.07200393      2.12745175
 H     -1.76138431     -1.75566016      1.17799409
 H     -0.07124830     -2.15349363      1.17696693
 H     -0.04340581     -2.14537869     -1.16459508
 H     -1.73905998     -1.77461257     -1.19202624
 H      0.08456254      0.07975344     -2.12900622
 H     -1.39195613      0.57109770     -1.32809580
