21

C       0.32032507      2.06894865      0.00043345
C       0.18459307      0.56510992      0.00000396
N       1.60344528     -0.01653437     -0.00240357
C      -0.53905776     -0.04803950      1.19339751
C      -0.86865002     -1.48819920      0.77399145
C      -0.85796372     -1.49043615     -0.77417210
C      -0.54219391     -0.04758086     -1.19153079
H       0.84097900      2.43422364     -0.88901576
H       0.84382117      2.43337746      0.88857980
H      -0.67411091      2.51586008      0.00237642
H       2.12100630      0.28697866     -0.82897448
H       1.57051829     -1.03813320     -0.00512517
H       2.12203834      0.28276035      0.82503158
H      -1.45276283      0.53218600      1.33899831
H       0.02522005      0.02720300      2.12741174
H      -1.83076288     -1.80046109      1.17795408
H      -0.14062687     -2.19829456      1.17692692
H      -0.11278438     -2.19017962     -1.16463509
H      -1.80843855     -1.81941350     -1.19206625
H       0.01518397      0.03495251     -2.12904623
H      -1.46133470      0.52629677     -1.32813581
