17

C       1.19583247     -0.01388361     -0.21096755
C       2.71131740     -0.01681888     -0.29404875
N       3.27023886     -0.01802879      1.12733613
C       3.29701001      1.16486435     -1.02626940
C       4.03710223      0.71672170     -2.04331140
C       4.03424426     -0.75519552     -2.04344049
C       3.29241699     -1.20063918     -1.02647686
H       0.79119455     -0.01300916     -1.22312935
H       0.82165335      0.87757187      0.29906067
H       0.81819420     -0.90396876      0.29890442
H       4.29237961     -0.02001056      1.09449736
H       2.96244374     -0.84357113      1.64521574
H       2.96565183      0.80861175      1.64536164
H       3.07719945      2.19423192     -0.77344379
H       4.55031944      1.32711146     -2.77425593
H       4.54508752     -1.36744545     -2.77449225
H       3.06861065     -2.22918973     -0.77383175
