19

C       1.04758818      0.25011936     -0.34422221
C       2.41050977      0.12570795      0.29962287
N       2.45879026     -1.07011481      1.24149450
C       3.29438522     -0.70535570      2.46253826
C       4.68066619     -1.31183765      2.37433026
C       3.26733123      0.78953483      2.38532281
C       2.81608756      1.23179262      1.22306307
H       0.80110999     -0.62881123     -0.94403374
H       1.04517103      1.11138596     -1.01359236
H       0.26750186      0.41102544      0.40472014
H       3.17264230     -0.04352731     -0.46864086
H       2.81982385     -1.90392416      0.77876950
H       1.50374471     -1.27804769      1.53482148
H       2.76908007     -1.09349855      3.33881509
H       5.20515012     -0.97939420      1.47549342
H       4.64658883     -2.40355849      2.39866135
H       5.26605133     -0.98481967      3.23475239
H       3.63249235      1.39911881      3.20101110
H       2.75156683      2.26764205      0.91764350
