19

 C      1.02850669      0.09520941     -0.43216843
 C      2.39142828     -0.02920199      0.21167665
 N      2.43970877     -1.22502475      1.15354828
 C      3.27530374     -0.86026564      2.37459204
 C      4.66158471     -1.46674759      2.28638404
 C      3.24824974      0.63462489      2.29737659
 C      2.79700607      1.07688268      1.13511685
 H      0.78202850     -0.78372118     -1.03197996
 H      1.02608954      0.95647601     -1.10153858
 H      0.24842037      0.25611549      0.31677392
 H      3.15356081     -0.19843725     -0.55658708
 H      2.80074236     -2.05883410      0.69082328
 H      1.48466322     -1.43295763      1.44687526
 H      2.74999859     -1.24840849      3.25086887
 H      5.18606863     -1.13430414      1.38754719
 H      4.62750735     -2.55846843      2.31071513
 H      5.24696985     -1.13972961      3.14680616
 H      3.61341087      1.24420887      3.11306487
 H      2.73248534      2.11273211      0.82969728
