19

 C      0.86074394     -0.06155904     -0.29506138
 C      2.30559041     -0.02470473      0.14571235
 N      2.66398944     -1.27769488      0.93809550
 C      3.66103123     -0.88727865      1.99185254
 C      3.42784364      0.58951710      2.13364570
 C      4.02970743      1.34318318      3.25941257
 C      2.69143092      1.03922304      1.12322870
 H      0.65549591     -0.91314995     -0.94774158
 H      0.63812232      0.84300339     -0.86263568
 H      0.18365481     -0.08784932      0.56299863
 H      2.96596306     -0.01677578     -0.72971150
 H      3.00186904     -2.02808261      0.33631523
 H      1.81139187     -1.61389098      1.38820705
 H      4.66667427     -1.11897692      1.62914598
 H      3.48081910     -1.46719762      2.89845504
 H      3.78253057      2.40202609      3.20130960
 H      5.11964815      1.24457676      3.25435689
 H      3.68020951      0.95732593      4.22144286
 H      2.40805721      2.07138351      0.96400251
