18
1897.log
C      2.209074   -0.000371    0.221350
C      0.852130    0.689029    0.336420
N     -0.000076    0.000584    1.304564
C     -0.766777   -1.085161    0.716268
C     -1.675754   -0.638447   -0.422291
C     -0.941679    0.281444   -1.346607
C      0.206942    0.859133   -1.011204
H      2.702160   -0.021813    1.194535
H      2.853638    0.522407   -0.489826
H      2.094700   -1.028192   -0.130622
H      1.035311    1.691057    0.744472
H     -0.641412    0.670938    1.710855
H     -1.341487   -1.574044    1.507311
H     -0.060514   -1.831394    0.338368
H     -2.569496   -0.136785   -0.025928
H     -2.046208   -1.508801   -0.975999
H     -1.371332    0.466103   -2.327377
H      0.725721    1.490528   -1.728421
