21

C       1.39825836      0.02094991     -2.52062877
C      -0.00565497     -0.39834968     -2.11836719
C      -0.48211437      0.27398073     -0.85911172
C      -1.53110581     -0.34638598     -0.00049504
C      -0.09808067     -0.29708164      0.47896800
C       0.26207345      0.61954537      1.59242160
N      -0.22670167      0.04233144      2.90910460
H       1.70371874     -0.47512877     -3.44293157
H       2.12985505     -0.23623483     -1.74963748
H       1.45650706      1.09874195     -2.69223776
H      -0.05264265     -1.48470189     -1.98439099
H      -0.71089138     -0.16197717     -2.92107506
H      -0.50202455      1.36008120     -0.90537490
H      -2.25988896      0.31032576      0.46475587
H      -1.92337097     -1.31273639     -0.29262836
H       0.46292029     -1.22731337      0.44692441
H       1.33731057      0.76737224      1.70494957
H      -0.22069068      1.59269589      1.49438687
H       0.24214244     -0.84263928      3.11120770
H      -1.22801546     -0.15496763      2.84078782
H      -0.06905782      0.67185815      3.69833440
