21

 C      1.79599969      0.00257958     -1.82378713
 C      0.34914098      0.44043226     -1.66476975
 C     -0.00681274      0.80129696     -0.24671713
 C     -1.42142981      0.77156785      0.26339520
 C     -0.42976358     -0.22934200      0.75761408
 C     -0.53824638     -1.69944025      0.49569974
 N      0.06316483      0.02368259      2.14788900
 H      2.02202916     -0.21397562     -2.86857988
 H      2.01151551     -0.90160510     -1.24831579
 H      2.48587086      0.78411625     -1.49546139
 H      0.15419817      1.31923677     -2.28640641
 H     -0.32826029     -0.33607452     -2.03186155
 H      0.60292966      1.60890622      0.15757316
 H     -1.75659635      1.56572884      0.92216376
 H     -2.19436913      0.39097100     -0.39352990
 H     -0.88477547     -1.87004205     -0.52197001
 H     -1.26158218     -2.17314151      1.16606143
 H      0.42542094     -2.20606113      0.60238344
 H     -0.57563821     -0.37222813      2.84326875
 H      0.14757605      1.02455991      2.33493437
 H      0.98403352     -0.39933470      2.29161504
