20
1927.log
C      1.786764   -0.001017   -1.865488
C      0.342015    0.438066   -1.678585
C      0.013342    0.792506   -0.253511
C     -1.405188    0.754147    0.256571
C     -0.400712   -0.204369    0.806944
C     -0.521301   -1.668240    0.484868
N     -0.002867   -0.000316    2.178525
H      2.005402   -0.223099   -2.912825
H      2.005316   -0.897663   -1.279990
H      2.479180    0.780916   -1.541151
H     -0.332331   -0.348753   -2.030486
H      0.138048    1.307383   -2.315297
H      0.614062    1.610366    0.140566
H     -2.163830    0.360516   -0.411406
H     -1.753830    1.557074    0.896987
H     -0.833254   -1.838209   -0.545964
H     -1.253506   -2.132542    1.149338
H      0.435091   -2.180370    0.633561
H     -0.062022    0.978692    2.429458
H      0.962457   -0.283176    2.310185
