21

C       1.69084511      0.09784138     -1.80536937
C       0.24398640      0.53569406     -1.64635199
C      -0.11196732      0.89655876     -0.22829937
C      -1.52658439      0.86682965      0.28181296
C      -0.53491816     -0.13408020      0.77603184
C      -0.64340097     -1.60417845      0.51411750
N      -0.04198976      0.11894439      2.16630676
H       1.91687458     -0.11871382     -2.85016212
H       1.90636093     -0.80634330     -1.22989803
H       2.38071628      0.87937805     -1.47704363
H       0.04904359      1.41449857     -2.26798865
H      -0.43341487     -0.24081272     -2.01344379
H       0.49777508      1.70416802      0.17599092
H      -1.86175093      1.66099064      0.94058152
H      -2.29952371      0.48623280     -0.37511214
H      -0.98993005     -1.77478025     -0.50355225
H      -1.36673677     -2.07787971      1.18447919
H       0.32026635     -2.11079933      0.62080120
H      -0.68079280     -0.27696633      2.86168651
H       0.04242146      1.11982171      2.35335213
H       0.87887893     -0.30407290      2.31003280
