21

C       1.12460192      0.00635281     -2.20637873
C      -0.36899781      0.08037910     -1.93880139
C      -0.69625089      0.55961927     -0.54908677
C      -1.99540463      0.21877903      0.12160933
C      -0.72572856     -0.41113413      0.58370670
N      -0.17584407      0.00198347      1.89304568
C       1.28666027     -0.24094626      2.04297509
H       1.31997194     -0.32678439     -3.22631185
H       1.61988786     -0.70002671     -1.53359554
H       1.60049663      0.98281713     -2.08502780
H      -0.83294470     -0.89895829     -2.09749254
H      -0.84586872      0.75862215     -2.65219992
H      -0.30377473      1.54631371     -0.30607160
H      -2.46235294      0.97092900      0.74869824
H      -2.69706879     -0.42427166     -0.39506095
H      -0.53997676     -1.46305199      0.40226650
H      -0.36813228      0.99694093      2.02611089
H      -0.68190791     -0.48159323      2.63913712
H       1.80477008      0.30023216      1.25472681
H       1.47024710     -1.30871612      1.94432409
H       1.60852198      0.10659101      3.02325062
