21

C       2.07487231     -0.01601989     -0.78225923
C       0.64556570     -0.43342867     -1.09814547
C      -0.39419798      0.28127534     -0.27712168
C      -0.93186882      1.61247154     -0.68830919
C      -1.81513300      0.39728749     -0.71041496
N      -0.19169281      0.12344261      1.19273471
C      -0.35073009     -1.26168088      1.71497336
H       2.76964143     -0.48672697     -1.47812660
H       2.39813754     -0.32570796      0.21832958
H       2.20654592      1.06542344     -0.86700861
H       0.52668972     -1.51736643     -1.00124383
H       0.41876215     -0.20855290     -2.14287502
H      -1.12892801      2.36422342      0.06886143
H      -0.57258186      2.01774975     -1.62540124
H      -2.07464893     -0.04584450     -1.66320160
H      -2.60284446      0.33661092      0.03284073
H      -0.84565606      0.74061535      1.67626024
H       0.74471950      0.46751960      1.42153797
H      -1.33589818     -1.62525754      1.43146303
H      -0.24908819     -1.24387524      2.79871965
H       0.41946411     -1.89353448      1.28068373
