21

 C      3.26806214     -1.26276307     -0.31151972
 C      2.54122810      0.03657091     -0.00145069
 C      3.05469169      1.20966019     -0.80460674
 C      2.63009726      2.65792853     -0.46349626
 C      4.05784255      3.13121616     -0.81326169
 C      4.49586794      1.68631012     -0.59023079
 N      5.54785531      1.12931013     -1.51555909
 H      2.83927514     -2.09846338      0.24263130
 H      4.32516192     -1.21990533     -0.01925373
 H      3.20855214     -1.51678431     -1.37432852
 H      1.47242043     -0.07963030     -0.20156770
 H      2.62697894      0.26736946      1.06567387
 H      2.89068001      1.03785440     -1.87750535
 H      1.81028403      3.08599920     -1.03592991
 H      2.41787674      2.76871643      0.60101071
 H      4.12740344      3.41962136     -1.86617521
 H      4.52404431      3.90156341     -0.20120928
 H      4.85307657      1.49547871      0.42367313
 H      5.28305687      1.28916869     -2.48966279
 H      5.65012631      0.12012837     -1.38266718
 H      6.45939297      1.56696276     -1.36344116
