20
1933.log
C      2.380798    0.000352   -1.292177
C      0.864244    0.025510   -1.413392
C      0.201133    0.563112   -0.174073
C     -1.245859    0.291314    0.169482
C     -2.164924   -0.512793   -0.707497
C     -0.162827   -0.341373    0.976822
N     -0.000073   -0.000210    2.360892
H      2.848969   -0.390249   -2.198866
H      2.696118   -0.627733   -0.454611
H      2.778518    1.004344   -1.119430
H      0.502123   -0.986723   -1.617676
H      0.575995    0.629076   -2.282331
H      0.552156    1.549660    0.123003
H     -1.740264    1.122879    0.667512
H     -2.574533    0.095347   -1.519139
H     -1.654767   -1.365117   -1.159395
H     -3.005189   -0.905099   -0.128306
H     -0.011468   -1.402139    0.785521
H     -0.423550    0.896115    2.563038
H      0.980473    0.067490    2.606397
