20
1937.log
C      1.971032    0.002208   -1.021908
C      0.716917    0.857324   -0.943106
C     -0.411640    0.348250   -0.045767
C     -1.566030    1.330496   -0.070759
C     -0.797488   -1.135587   -0.265644
C     -0.047405   -1.441690    1.037882
N      0.001177   -0.001979    1.337172
H      2.717667    0.478660   -1.661028
H      1.769093   -0.986452   -1.440402
H      2.430824   -0.138695   -0.040199
H      0.308095    0.996067   -1.950787
H      0.989460    1.860755   -0.591240
H     -1.967251    1.440199   -1.082877
H     -1.241643    2.316715    0.274501
H     -2.365748    0.990321    0.589040
H     -0.423608   -1.610034   -1.172983
H     -1.873083   -1.301720   -0.197419
H      0.929362   -1.908107    0.867329
H     -0.584797   -2.030048    1.786889
H      0.905107    0.354682    1.621545
