21

 C      1.99507604      0.04210488     -1.00230854
 C      0.71633968      0.86409215     -0.96962122
 C     -0.41565131      0.34383106     -0.10156334
 C     -1.57731200      1.30138553     -0.03224612
 C     -0.79050860     -1.14630983     -0.27682154
 C     -0.16197342     -1.45722323      1.08119991
 N      0.10059260      0.01114141      1.32923084
 H      2.70355933      0.49532633     -1.69608268
 H      1.82870092     -0.98225088     -1.34114303
 H      2.50924993      0.00356887     -0.03556599
 H      0.30281687      0.93678750     -1.98029085
 H      0.93920307      1.89246680     -0.66477382
 H     -2.01202881      1.40045615     -1.02888363
 H     -1.26038690      2.29544050      0.29237244
 H     -2.36714551      0.94093384      0.63200351
 H     -0.32558752     -1.64388552     -1.12461207
 H     -1.86557624     -1.31485224     -0.31500746
 H      0.77973633     -2.00067672      1.05065641
 H     -0.80635214     -1.87988784      1.84838848
 H     -0.46799415      0.42016166      2.06821500
 H      1.07566873      0.25317852      1.49689882
