20
1939.log
C      2.817560    0.002277   -0.470995
C      1.437389   -0.018635   -1.107173
C      0.382000    0.679524   -0.267681
C     -1.060200    0.487854   -0.768858
C     -1.218601   -0.550081    0.357282
C     -2.459382   -0.510420    1.213675
N     -0.001915   -0.000468    0.985682
H      3.554464   -0.503995   -1.098356
H      2.822441   -0.497211    0.502239
H      3.161084    1.028395   -0.313406
H      1.124218   -1.053165   -1.294542
H      1.477352    0.473433   -2.086264
H      0.689813    1.719231   -0.100849
H     -1.178538    0.135933   -1.794453
H     -1.687921    1.366424   -0.611593
H     -1.074971   -1.568031   -0.032506
H     -2.619886    0.498529    1.600473
H     -2.368509   -1.188453    2.066871
H     -3.339575   -0.811008    0.637580
H      0.662615   -0.680034    1.336728
