12

C       1.22942015      0.30986094      0.05628778
C       2.42433519      0.38140953      0.10907843
C       3.83907494      0.48600576      0.19649264
N       4.63460117     -0.30053047     -0.81108209
C       4.62131708      1.18709562     -0.86436401
C       5.86294902      1.82739088     -0.54422317
N       6.86113041      2.32389699     -0.26806363
H       0.16295347      0.24546133      0.01219172
H       4.29287116      0.44855341      1.18306964
H       5.49025219     -0.75717297     -0.50216721
H       4.11233979     -0.80066023     -1.52691400
H       4.07106686      1.58240749     -1.71226097
