17

C       2.18201095      0.84008665      1.22143166
C       2.17991031      0.14611672      0.09236060
C       2.97360359      0.52021570     -1.12491272
N       4.19987433     -0.40164839     -1.26019890
C       5.41670736      0.37939241     -0.83136987
C       4.94128682      1.79010168     -0.93914403
C       3.63083168      1.86299918     -1.10739344
H       1.57858156      0.52851358      2.06536290
H       2.76694828      1.74570284      1.34253972
H       1.55677572     -0.73981272     -0.00394818
H       2.36908865      0.36008651     -2.02237193
H       4.30547261     -0.68495066     -2.23373207
H       4.07502645     -1.24761746     -0.70430066
H       6.25081651      0.12775375     -1.48756920
H       5.68268102      0.09416642      0.18936106
H       5.62420331      2.62542912     -0.86379803
H       3.04937872      2.77046868     -1.19638646
