15

C       0.63899486      0.20011053     -0.63892944
C       1.79964905      0.18132685     -0.34204039
C       3.19954344      0.15795260      0.01928917
N       3.51022404     -1.09209344      0.84634857
C       4.55198183     -0.72285571      1.87028063
C       4.40986824      0.76217367      1.93766897
C       3.67994583      1.24242363      0.94542864
H      -0.39447968      0.22410901     -0.90746155
H       3.82177881      0.10906663     -0.88339389
H       3.79136066     -1.87423453      0.25503026
H       2.64356524     -1.36423039      1.31457314
H       5.53284216     -1.03980573      1.50563512
H       4.34291848     -1.24839568      2.80270916
H       4.89335137      1.34336454      2.71107751
H       3.44863853      2.27990514      0.74985911
