21

C      -1.55256829      1.73903646      0.00059929
C      -0.05534191      1.48048932     -0.00065361
C       0.33151858      0.01565795      0.00023583
N       1.85335139     -0.03315390      0.00032996
C      -0.16540445     -0.96911261      1.07589648
C      -0.23213146     -2.07297618      0.00007411
C      -0.16518447     -0.96896253     -1.07575200
H      -1.73763036      2.81332907     -0.00450170
H      -2.03688237      1.33026742      0.88855165
H      -2.03960747      1.32190069     -0.88198537
H       0.39171842      1.96347801      0.87830274
H       0.38951909      1.96091332     -0.88218443
H       2.23127823      0.43612653     -0.82553033
H       2.18914864     -0.99846176     -0.00091573
H       2.23121079      0.43389869      0.82748380
H      -1.15719825     -0.67757258      1.41887459
H       0.46396212     -1.12214946      1.95605228
H       0.64095551     -2.73063795      0.00003522
H      -1.11677601     -2.70577009      0.00001088
H       0.46412142     -1.12187534     -1.95598611
H      -1.15692617     -0.67755902     -1.41893753
