21

 C     -1.56550092      1.82684267      0.00049499
 C     -0.06827454      1.56829553     -0.00075790
 C      0.31858595      0.10346416      0.00013154
 N      1.84041876      0.05465231      0.00022567
 C     -0.17833708     -0.88130640      1.07579219
 C     -0.24506409     -1.98516997     -0.00003018
 C     -0.17811710     -0.88115632     -1.07585629
 H     -1.75056299      2.90113528     -0.00460600
 H     -2.04981500      1.41807363      0.88844735
 H     -2.05254010      1.40970690     -0.88208967
 H      0.37878579      2.05128422      0.87819845
 H      0.37658646      2.04871953     -0.88228872
 H      2.21834560      0.52393274     -0.82563462
 H      2.17621601     -0.91065555     -0.00102002
 H      2.21827816      0.52170490      0.82737951
 H     -1.17013088     -0.58976637      1.41877029
 H      0.45102949     -1.03434325      1.95594799
 H      0.62802288     -2.64283174     -0.00006907
 H     -1.12970864     -2.61796388     -0.00009342
 H      0.45118880     -1.03406913     -1.95609040
 H     -1.16985880     -0.58975281     -1.41904183
