18
2010.log
C      2.049121   -0.000008   -1.853334
C      1.557782   -0.430652   -0.481954
C      0.367483    0.379793    0.025725
N     -0.000050   -0.000531    1.391895
C     -1.452080   -0.049981    1.526704
C     -1.917170   -0.087642    0.107034
C     -0.913258    0.156404   -0.722594
H      2.929639   -0.571927   -2.153851
H      2.325230    1.058783   -1.862187
H      1.287033   -0.147963   -2.622907
H      2.367207   -0.329632    0.248960
H      1.275207   -1.487821   -0.482700
H      0.641985    1.449665   -0.049272
H      0.435883    0.587288    2.085460
H     -1.876765    0.825219    2.047031
H     -1.771511   -0.934817    2.092433
H     -2.945747   -0.276540   -0.173868
H     -0.983485    0.208169   -1.801514
