19

C       1.81172179      0.04168126     -1.81060414
C       1.34172810     -0.40477062     -0.43524819
C       0.13137290      0.37918561      0.04131886
N      -0.24104288     -0.02760683      1.46376038
C      -1.74123079      0.01696672      1.59439844
C      -2.17505422     -0.05990822      0.16786790
C      -1.16712690      0.14292321     -0.66600997
H       2.70254926     -0.51582986     -2.09946913
H       2.06853555      1.10324722     -1.81878713
H       1.05377160     -0.13351746     -2.57600503
H       1.09018691     -1.47205165     -0.45261880
H       2.15627329     -0.27165942      0.28607899
H       0.36955457      1.44923445      0.07233445
H       0.08106468     -0.98688358      1.60286359
H       0.22844498      0.54974790      2.16014218
H      -2.07630148     -0.80616395      2.22672046
H      -2.02486904      0.95818032      2.07358540
H      -3.20814243     -0.22736837     -0.10383496
H      -1.23790273      0.17606143     -1.74420128
