19

 C      1.01481241     -0.28440937     -0.75133879
 C      2.48499786     -0.26092311     -0.56351097
 C      3.28359738     -1.32227004     -0.66296681
 C      4.75405092     -1.27417807     -0.53511866
 C      5.52703811     -0.00929553     -0.13476516
 C      6.35637359     -0.86546132      0.82477621
 N      5.31987073     -1.96226755      0.74213417
 H      0.51109239      0.12211873      0.13043844
 H      0.63812448     -1.28921090     -0.94281843
 H      0.73262396      0.36093507     -1.58876461
 H      2.92144378      0.71437610     -0.35613561
 H      2.85993920     -2.29334350     -0.91197685
 H      5.24824376     -1.78815878     -1.36383442
 H      4.90691504      0.71267093      0.39513948
 H      6.06668616      0.49391940     -0.93253926
 H      6.52130355     -0.51584389      1.84094465
 H      7.28778487     -1.23316054      0.39829567
 H      5.65450455     -2.92062316      0.65723264
 H      4.63867528     -1.91742377      1.49989558
