21

C       1.85062959      0.08833445     -0.75383810
C       0.35395191     -0.16968197     -0.86842301
C       0.06433187     -1.66343528     -0.99092692
C      -0.48358680      0.46769240      0.23175132
C      -1.97473943      0.46372298      0.05119433
C       0.08220396      1.49278250      1.13016611
N      -0.05285742      0.10788610      1.63694923
H       2.36200454     -0.39901034     -1.58444579
H       2.29186946     -0.33621252      0.15639010
H       2.10307437      1.14864807     -0.80294052
H       0.00234411      0.32205089     -1.78302832
H       0.38589498     -2.21128645     -0.09944856
H       0.61709901     -2.07594519     -1.83539106
H      -0.99095957     -1.87800683     -1.15986271
H      -2.36045102     -0.54134617     -0.11597191
H      -2.22007596      1.07092867     -0.82223749
H      -2.49195771      0.90060045      0.90845962
H      -0.58271916      2.20138047      1.60781016
H       1.10996514      1.81071363      1.02186841
H       0.79878619     -0.43129982      1.74793172
H      -0.76793806     -0.08869405      2.32765337
