21

 C      1.06992334     -0.08787015     -0.01653983
 C      2.51842847      0.37047217     -0.01562660
 C      3.48406515     -0.81196760     -0.01291098
 C      4.92527824     -0.38158940      0.07659813
 C      5.51192548      0.36981915     -1.08073212
 C      5.53406886     -0.22647119      1.41029351
 N      5.84070545     -1.45231099      0.63359790
 H      0.39539511      0.76876891     -0.02819956
 H      0.83822353     -0.68097488      0.87146933
 H      0.84716236     -0.69783910     -0.89511058
 H      2.70916890      0.99948447      0.86089841
 H      2.70489716      0.99397151     -0.89466824
 H      3.34730477     -1.40557686     -0.92279961
 H      3.24363003     -1.46446317      0.83582785
 H      5.34712222     -0.16580875     -2.01718504
 H      6.58171894      0.55243092     -0.95585534
 H      5.02305303      1.34198913     -1.15591249
 H      4.93864016     -0.40981572      2.29609285
 H      6.38557191      0.42948100      1.54180396
 H      6.77048618     -1.54772441      0.24075958
 H      5.42370551     -2.32478028      0.93858990
