21

 C      1.83144826      0.02357248     -1.52070090
 C      0.44297192     -0.23177829     -2.08332540
 C     -0.54195963     -0.83057211     -1.08569804
 C     -0.89092253      0.06205282      0.06681634
 C     -1.38847033     -0.47729330      1.34527195
 N     -0.00699392      0.04166093      1.27134194
 C      0.38556224      1.26157346      1.98480709
 H      2.50848832      0.36734685     -2.30347594
 H      2.26831876     -0.88692751     -1.09809716
 H      1.83364092      0.80056109     -0.74972775
 H      0.51519226     -0.92235499     -2.92693666
 H      0.02646997      0.69489368     -2.49124384
 H     -0.16952685     -1.78927582     -0.70207406
 H     -1.48781554     -1.05897450     -1.58794364
 H     -1.18613234      1.07868898     -0.17571849
 H     -2.04359918      0.11902624      1.96745987
 H     -1.46191503     -1.55074021      1.47080842
 H      0.71484290     -0.67147828      1.23560807
 H     -0.43866461      1.97179670      1.94749874
 H      1.26277147      1.69007969      1.50199552
 H      0.60882152      1.01243207      3.02162316
