21

C       1.33947368      0.09946037     -1.67795130
C      -0.13198673     -0.08937868     -1.32419318
C      -0.51610480     -1.56084712     -1.26253302
C      -0.46420313      0.69347504     -0.07723394
C      -1.53969491      0.36077226      0.87356282
N      -0.13430370      0.09995000      1.25153507
C       0.53435232      0.85903948      2.31365715
H       1.56099401     -0.37075780     -2.63648587
H       1.99346396     -0.36224689     -0.93170618
H       1.60563152      1.15566569     -1.75803876
H      -0.73743398      0.38618254     -2.10551298
H       0.05742388     -2.11668589     -0.51099534
H      -0.28461973     -2.03358563     -2.21751425
H      -1.58105469     -1.71858793     -1.08203334
H      -0.17287163      1.73917022     -0.10334197
H      -2.13447481     -0.53153745      0.72814056
H      -2.00625150      1.15114429      1.44784483
H       0.12813433     -0.88004221      1.20439044
H       0.19645511      1.89316423      2.27285487
H       1.61127737      0.81839472      2.15628898
H       0.27632242      0.42645376      3.27973141
