20
2040.log
C      1.472673   -0.000205   -1.635221
C     -0.018674   -0.125025   -1.342762
C     -0.448203   -1.583848   -1.317896
C     -0.339583    0.616082   -0.063223
C     -1.397266    0.243651    0.905018
N      0.000162    0.000308    1.201157
C      0.597734    0.855438    2.199749
H      1.728636   -0.466294   -2.589869
H      2.053237   -0.494706   -0.851382
H      1.786767    1.046476   -1.678095
H     -0.569168    0.383429   -2.145201
H     -0.002689   -2.098527   -0.463301
H     -0.123614   -2.091337   -2.229327
H     -1.533430   -1.687845   -1.251989
H     -0.140810    1.688198   -0.122882
H     -2.008154   -0.639196    0.751295
H     -1.891373    1.055494    1.435177
H      0.406339    0.445215    3.194389
H      0.209223    1.886538    2.171282
H      1.679283    0.892576    2.049365
