17

C       0.82219935     -0.11437100      0.18678186
C       2.26523312     -0.14915900      0.15428516
C       3.46814933     -0.18488275      0.13144534
C       4.88858619     -0.24536650      0.15044711
C       5.65701191     -0.96040855     -0.89595651
N       5.62024253      0.51306939     -0.93065102
C       6.80788184      1.32447650     -0.64402467
H       0.40758681     -1.08531045     -0.09275115
H       0.44260648      0.63561877     -0.51115885
H       0.46983826      0.14038317      1.18860587
H       5.38086257     -0.11890417      1.11044917
H       6.62960240     -1.36766046     -0.65063715
H       5.11514780     -1.44697775     -1.69638249
H       4.99240409      0.90312726     -1.62756543
H       7.38388610      0.84127690      0.14349845
H       6.49038060      2.31304678     -0.31565481
H       7.41304006      1.39972914     -1.54716931
