18
2043.log
C      1.225986    0.001144   -2.714730
C      0.176159    0.424120   -2.024359
C     -0.560925   -0.376634   -1.002135
C     -0.539782    0.268776    0.368983
C     -1.114650   -0.503832    1.569193
N      0.000302    0.000387    2.385249
C      0.774791    0.295278    1.168435
H      1.723597    0.635683   -3.439049
H      1.623383   -1.000808   -2.582872
H     -0.187301    1.438022   -2.187672
H     -0.134715   -1.384055   -0.944711
H     -1.606795   -0.492047   -1.316774
H     -0.972823    1.271883    0.323673
H     -1.089096   -1.588874    1.391712
H     -2.110199   -0.228819    1.928666
H      0.417291   -0.667897    3.020034
H      1.446559   -0.515501    0.852124
H      1.341757    1.229185    1.198320
