19

C       1.13050390     -0.02523115     -2.04396844
C      -0.12729359     -0.02395843     -1.23453123
C      -1.30425802      0.35935667     -1.71472808
C       0.03380132     -0.52866427      0.16450823
C       0.90772486      0.29851879      1.13374410
N      -0.10551255      0.04524041      2.23375579
C      -1.10900997     -0.38293726      1.17819199
H       0.95545976      0.36640415     -3.04477781
H       1.53251559     -1.03889332     -2.14023601
H       1.91345671      0.58353801     -1.57857151
H      -1.40152431      0.70431575     -2.73697524
H      -2.21984581      0.33006551     -1.13433287
H       0.39338667     -1.56353523      0.14357104
H       0.91136363      1.36336044      0.90466588
H       1.90653414     -0.04467786      1.39313850
H      -0.36138173      0.84077220      2.81677167
H       0.16821918     -0.72238130      2.84532425
H      -1.68430358     -1.25799744      1.47068184
H      -1.76691605      0.45956261      0.97276034
