18
2046.log
C      1.203486   -0.000817   -2.013458
C     -0.064366   -0.007443   -1.216700
C     -1.228959    0.363989   -1.739571
C      0.084518   -0.476075    0.190952
C      0.953010    0.345362    1.172033
N      0.000239   -0.000643    2.236890
C     -1.031589   -0.311741    1.233167
H      1.638063   -1.004908   -2.060857
H      1.955763    0.643341   -1.546129
H      1.037311    0.350539   -3.032364
H     -1.302969    0.687739   -2.771960
H     -2.146387    0.352544   -1.162693
H      0.441623   -1.511964    0.190926
H      0.955095    1.409589    0.897964
H      1.980868    0.017749    1.349114
H     -0.228063    0.750325    2.875208
H     -1.685039    0.536646    0.992533
H     -1.648151   -1.184478    1.462320
