17

 C      0.98030215     -0.09708237     -0.01939665
 C      2.42696659     -0.08909804      0.00339896
 C      3.62964772     -0.07899458      0.01173185
 C      5.06858379     -0.06947656      0.01094186
 C      5.79015951      0.96744635      0.90192950
 N      6.75390517     -0.11171443      1.36185421
 C      5.80379809     -1.16382634      0.81830727
 H      0.58079499      0.75627774      0.53285189
 H      0.59187970     -1.01030725      0.43667275
 H      0.61222760     -0.04367333     -1.04619193
 H      5.45755734     -0.02689043     -1.01118222
 H      5.19115175      1.28964844      1.75095076
 H      6.28900380      1.81235622      0.43324839
 H      7.64056026     -0.08642206      0.86018782
 H      6.95560908     -0.14952727      2.35968534
 H      6.31334355     -1.96269666      0.28490604
 H      5.20916109     -1.55893952      1.63910741
