21

C       0.47011224     -0.03484094     -2.28332661
C       0.61118789     -1.34771335     -1.53212539
C       0.91181033     -1.19195881     -0.04161507
C      -0.20780968     -0.51313519      0.68782873
N       0.08185625     -0.04310749      2.08227043
C      -0.22882645      0.92926483      0.98543873
C      -1.48835992      1.71865684      1.11931185
H       0.32328291     -0.21812895     -3.34837028
H       1.36623171      0.58325922     -2.18021987
H      -0.38852328      0.55015873     -1.94193219
H      -0.29250612     -1.95342223     -1.65515671
H       1.42431740     -1.93421626     -1.96593243
H       1.07054876     -2.17847943      0.40439327
H       1.83699902     -0.61812501      0.09214916
H      -1.17772955     -1.00091821      0.64079425
H       1.03811106     -0.11691000      2.41166140
H      -0.61949641     -0.18551979      2.80042914
H       0.66187531      1.48131634      0.70211661
H      -2.32719747      1.09674276      1.44012361
H      -1.74118498      2.14180430      0.14532422
H      -1.36434702      2.54542765      1.82027915
