20
2051.log
C      1.139279   -0.004970   -2.037489
C      0.970433    0.657866   -0.675076
C      0.147284    1.931945   -0.798312
C      0.433422   -0.352032    0.317432
N     -0.026106    0.018635    1.652802
C     -0.992507   -0.487016    0.674828
C     -1.620814   -1.814193    0.975951
H      1.604188    0.677910   -2.752888
H      0.169219   -0.306656   -2.443515
H      1.765905   -0.897943   -1.971008
H      1.969342    0.941851   -0.315673
H     -0.825943    1.736777   -1.256261
H      0.667175    2.653261   -1.432707
H     -0.022648    2.421086    0.164963
H      1.017816   -1.271537    0.329564
H     -0.102367    1.027683    1.729245
H     -1.664365    0.249438    0.240330
H     -0.885506   -2.489106    1.418039
H     -2.015136   -2.277558    0.067340
H     -2.445056   -1.704763    1.685977
