21

 C      0.80165631      0.02841291     -1.87691463
 C      0.78298918      0.51135235     -0.43335991
 C      0.41736236      1.99376465     -0.36920612
 C     -0.13705569     -0.31889996      0.44312137
 N      0.00234473      0.08894997      1.87520984
 C     -1.51928346     -0.73594031      0.06902791
 C     -0.44436345     -1.76720460      0.26306355
 H      1.12821729     -1.00806238     -1.96570924
 H      1.50190802      0.63749075     -2.44933898
 H     -0.17689899      0.13102631     -2.35157879
 H      1.80100571      0.38337516     -0.03631814
 H     -0.60593752      2.16168262     -0.71415697
 H      1.08210917      2.57024197     -1.01347981
 H      0.52021471      2.43472262      0.62897723
 H      0.96019201     -0.06067852      2.20344873
 H     -0.62478588     -0.44310459      2.48043595
 H     -0.21549530      1.08274205      1.98545992
 H     -2.31021585     -0.67386462      0.80860874
 H     -1.84520531     -0.51404949     -0.93819594
 H     -0.50125779     -2.40439048      1.13920001
 H     -0.03761663     -2.25999853     -0.60867590
