21

C       0.76027852     -0.08759961     -1.84009524
C       0.74161139      0.39533983     -0.39654052
C       0.37598457      1.87775213     -0.33238673
C      -0.17843348     -0.43491248      0.47994076
N      -0.03903306     -0.02706254      1.91202923
C      -1.56066125     -0.85195283      0.10584730
C      -0.48574125     -1.88321712      0.29988294
H       1.08683950     -1.12407490     -1.92888985
H       1.46053023      0.52147823     -2.41251959
H      -0.21827678      0.01501379     -2.31475940
H       1.75962792      0.26736264      0.00050125
H      -0.64731531      2.04567010     -0.67733758
H       1.04073138      2.45422945     -0.97666042
H       0.47883692      2.31871010      0.66579662
H       0.91881422     -0.17669103      2.24026812
H      -0.66616368     -0.55911710      2.51725534
H      -0.25687309      0.96672954      2.02227931
H      -2.35159364     -0.78987713      0.84542813
H      -1.88658310     -0.63006201     -0.90137655
H      -0.54263559     -2.52040300      1.17601940
H      -0.07899443     -2.37601105     -0.57185651
