20
2054.log
C      1.991715   -0.000614   -1.384386
C      1.275503    1.195817   -0.778029
C     -0.215491    0.984299   -0.538281
C     -0.562445   -0.096555    0.466750
N     -0.001121    0.001333    1.787757
C     -1.949159   -0.662580    0.421207
C     -0.783343   -1.498610   -0.018248
H      1.943884   -0.874722   -0.731148
H      3.045653    0.222140   -1.566912
H      1.542715   -0.284405   -2.340671
H      1.757915    1.473653    0.166508
H      1.399560    2.063187   -1.434603
H     -0.653531    1.929310   -0.191134
H     -0.706797    0.753073   -1.490691
H     -0.248939    0.885062    2.218647
H      1.010271   -0.049194    1.759321
H     -2.626691   -0.289184   -0.337568
H     -2.406600   -0.907929    1.370852
H     -0.667367   -1.697693   -1.076498
H     -0.469883   -2.299647    0.638874
