21

 C      0.87125767      0.07987936      0.20146930
 C      2.38291162      0.17541045      0.09576603
 C      2.96601508     -0.86013808     -0.85518934
 C      4.48616705     -0.76157650     -0.95539944
 C      5.02796565     -1.79301531     -1.89426378
 C      5.22487092     -1.52308015     -3.32607168
 N      6.41041400     -1.57290579     -2.43463910
 H      0.47954582      0.83253839      0.88700044
 H      0.56017435     -0.89965937      0.57303406
 H      0.39360015      0.23547392     -0.76915815
 H      2.66774482      1.17777737     -0.24327587
 H      2.83254498      0.04780192      1.08656754
 H      2.68820876     -1.86451479     -0.51580275
 H      2.52234236     -0.73562802     -1.84974338
 H      4.77040518      0.23969262     -1.30231910
 H      4.93509979     -0.90428906      0.03248855
 H      4.88176993     -2.83196089     -1.61588515
 H      5.18399065     -2.32920931     -4.04704401
 H      5.01096543     -0.53189787     -3.70686339
 H      6.86769746     -0.69738560     -2.20335325
 H      7.04246886     -2.36137712     -2.51627017
