19

C       1.36767742     -0.43586819     -0.83903321
C       2.39634706     -0.03724902     -0.10710607
C       3.10596411     -0.89995223      0.88759415
C       4.57395304     -1.10748311      0.51331710
C       5.32168388     -1.96035580      1.48871798
C       6.76425630     -1.81272501      1.73201406
N       5.80968309     -1.28983787      2.74005738
H       0.88702417      0.22930681     -1.54580138
H       0.96078675     -1.43888782     -0.75460587
H       2.76981722      0.97919123     -0.21685052
H       2.60372180     -1.86961775      0.95854483
H       3.04339145     -0.43702116      1.88196459
H       5.08682053     -0.14543681      0.39238378
H       4.64116094     -1.60670347     -0.45862346
H       4.89117486     -2.93051285      1.71696526
H       7.31009867     -1.03817982      1.20766384
H       7.34835966     -2.65644171      2.07623652
H       5.72988805     -1.77500383      3.62672458
H       5.69450300     -0.28413271      2.80664375
