19

 C      1.40295901     -0.43806687     -0.80255213
 C      2.43162865     -0.03944770     -0.07062498
 C      3.14124570     -0.90215091      0.92407524
 C      4.60923463     -1.10968179      0.54979819
 C      5.35696547     -1.96255448      1.52519907
 C      6.79953789     -1.81492369      1.76849515
 N      5.84496467     -1.29203655      2.77653847
 H      0.92230576      0.22710813     -1.50932030
 H      0.99606834     -1.44108650     -0.71812479
 H      2.80509881      0.97699255     -0.18036943
 H      2.63900339     -1.87181643      0.99502592
 H      3.07867303     -0.43921984      1.91844568
 H      5.12210212     -0.14763549      0.42886487
 H      4.67644253     -1.60890215     -0.42214237
 H      4.92645645     -2.93271153      1.75344635
 H      7.34538026     -1.04037850      1.24414493
 H      7.38364125     -2.65864039      2.11271761
 H      5.76516963     -1.77720251      3.66320567
 H      5.72978458     -0.28633139      2.84312484
