14
2062.log
C      1.279985    0.001112   -3.213493
C      0.690004   -0.092698   -2.168734
C     -0.021957   -0.239827   -0.953077
C     -0.021225    0.668236    0.027825
C     -0.723827    0.530107    1.317194
C     -1.076650   -0.782994    1.883696
N     -0.000119    0.000422    2.484700
H      1.805596    0.091719   -4.134426
H     -0.601432   -1.152936   -0.844335
H      0.538750    1.589428   -0.115221
H     -1.349882    1.379705    1.579953
H     -0.814141   -1.673115    1.322173
H     -1.968223   -0.878148    2.493604
H      0.895015   -0.369180    2.177079
