15

 C      1.25752802     -0.00252892     -3.21546890
 C      0.68697358     -0.09107497     -2.16101339
 C      0.00004872     -0.23649630     -0.94063989
 C      0.00762988      0.67791975      0.03844891
 C     -0.75180309      0.51947213      1.28468949
 C     -1.08346172     -0.78381951      1.87770285
 N      0.00929562      0.00088582      2.49439192
 H      1.76420128      0.08160493     -4.15070123
 H     -0.58082092     -1.15065449     -0.83117582
 H      0.53940195      1.61488024     -0.08890469
 H     -1.37906550      1.35444715      1.58455797
 H     -0.74393845     -1.69300827      1.39913369
 H     -1.96388622     -0.87916460      2.49985941
 H     -0.14746044      0.42822581      3.40092198
 H      0.96054690     -0.31316171      2.33049260
