15

C       1.37054553      0.04102042     -3.67246318
C       0.79999108     -0.04752563     -2.61800767
C       0.11306622     -0.19294696     -1.39763417
C       0.12064738      0.72146909     -0.41854537
C      -0.63878559      0.56302147      0.82769521
C      -0.97044422     -0.74027017      1.42070857
N       0.12231312      0.04443516      2.03739764
H       1.87721879      0.12515427     -4.60769551
H      -0.46780342     -1.10710515     -1.28817010
H       0.65241945      1.65842958     -0.54589897
H      -1.26604800      1.39799649      1.12756369
H      -0.63092095     -1.64945893      0.94213941
H      -1.85086872     -0.83561526      2.04286513
H      -0.03444294      0.47177515      2.94392770
H       1.07356440     -0.26961237      1.87349832
