18
2065.log
C      1.688291    0.000595   -2.040873
C      0.324766   -0.450419   -1.639107
C     -0.282619   -0.319643   -0.455489
C     -1.666681   -0.864155   -0.257504
C      0.367365    0.334388    0.705491
C     -0.362565    1.306109    1.556876
N     -0.002051   -0.000057    2.084177
H      2.263472   -0.833953   -2.454339
H      2.264535    0.430119   -1.222278
H      1.626839    0.756151   -2.831490
H     -0.242043   -0.942042   -2.427635
H     -2.088901   -1.191549   -1.207676
H     -2.348362   -0.120615    0.167688
H     -1.669304   -1.728625    0.415370
H      1.432716    0.501774    0.601507
H     -1.402861    1.507465    1.322757
H      0.176642    2.144616    1.984774
H     -0.815293   -0.606169    2.090005
