19

C       2.32781875     -2.14542601     -0.10178555
C       2.93387449     -0.83047260     -0.47734120
C       3.35705226     -0.54592432     -1.70345255
C       3.02278939      0.21001873      0.61387365
C       4.05434964     -0.17667502      1.63658563
C       5.46106804      0.21869052      1.49692564
N       4.60946761      0.92464670      2.48897127
H       2.28380000     -2.81550600     -0.95926627
H       1.30993717     -2.01098221      0.27794235
H       2.89483429     -2.65672396      0.68387791
H       3.28926037     -1.27367377     -2.50343436
H       3.76345460      0.42609898     -1.96173900
H       2.05415411      0.31834205      1.11447567
H       3.28672280      1.17894612      0.17784697
H       3.85543578     -1.06329121      2.22863254
H       5.74839238      0.83425982      0.65341976
H       6.24602442     -0.38034426      1.93996017
H       4.31971657      1.87308659      2.27506838
H       4.77390734      0.75531456      3.47513096
