21

C       1.33134949      0.05624141     -2.16369405
C       0.24958327      0.42651276     -1.15900037
C      -1.06981760     -0.25609004     -1.49320415
C       0.73747724      0.08912690      0.25591830
C      -0.21822679      0.54466949      1.31490534
C      -1.21440676     -0.34590806      1.92805368
N       0.00139114      0.00877469      2.70033432
H       1.02315991      0.32919287     -3.17417572
H       1.52176204     -1.02094397     -2.15619433
H       2.27269712      0.56849840     -1.95248051
H       0.10122340      1.51301425     -1.20551243
H      -0.97568530     -1.34502490     -1.43255117
H      -1.37279349     -0.01453736     -2.51315796
H      -1.88772703      0.05552084     -0.83791897
H       1.70442311      0.57228233      0.42801201
H       0.89127400     -0.99491380      0.33803503
H      -0.44126805      1.60687550      1.34336153
H      -1.24640849     -1.38454000      1.62394955
H      -2.12988249      0.05817037      2.34087828
H      -0.09483047      0.63253536      3.49359556
H       0.71495475     -0.70287503      2.81637406
