18
2069.log
C      1.445999    0.000298   -2.252879
C      0.364403    0.054560   -1.219842
C     -0.992028   -0.356657   -1.697567
C      0.619945    0.464548    0.024053
C     -0.346297    0.578227    1.143301
C     -1.077256   -0.597619    1.660425
N      0.000441   -0.000234    2.443263
H      1.550937   -1.013963   -2.652953
H      2.410092    0.311885   -1.848673
H      1.204514    0.646063   -3.103960
H     -1.312133    0.288985   -2.522492
H     -1.744760   -0.304945   -0.912784
H     -0.970396   -1.376905   -2.095821
H      1.635305    0.785584    0.255974
H     -0.831348    1.547847    1.245177
H     -0.894815   -1.549190    1.171790
H     -2.070146   -0.480946    2.082312
H      0.840758   -0.561685    2.340619
