20
2070.log
C      1.776456   -0.001296   -0.758098
C      0.251429   -0.046080   -0.646855
C     -0.367069    0.750290   -1.795086
C     -0.216661   -1.495409   -0.735609
C     -0.144577    0.634581    0.654665
C     -1.339554    0.282813    1.442312
N      0.001704    0.004962    1.960967
H      2.110646   -0.435293   -1.704478
H      2.248408   -0.558262    0.055519
H      2.141976    1.028157   -0.712114
H     -0.070619    0.332922   -2.761318
H     -0.041996    1.794058   -1.768437
H     -1.458682    0.735979   -1.739484
H      0.140746   -1.940076   -1.667651
H     -1.305881   -1.574350   -0.732976
H      0.175642   -2.111520    0.078802
H      0.156093    1.681344    0.672122
H     -1.946122   -0.554696    1.114385
H     -1.885909    1.055051    1.973398
H      0.207615   -0.983010    1.852650
