21

C       1.73355461      0.08479195     -0.63483608
C       0.21027560      0.01637613     -0.52310859
C      -0.43875385      0.81112181     -1.65945219
C      -0.25797731     -1.43528231     -0.57432931
C      -0.20025598      0.72020503      0.75414428
C      -1.39037561      0.39983061      1.55548777
N      -0.05467996     -0.00685446      2.05643926
H       2.05680741     -0.35412899     -1.57997135
H       2.22959516     -0.46904243      0.16770278
H       2.09135528      1.11706261     -0.61049726
H      -0.14968768      0.37843445     -2.61852819
H      -0.11434351      1.85455508     -1.65647553
H      -1.52936069      0.78836674     -1.59778243
H       0.07339970     -1.88044134     -1.51359859
H      -1.34564094     -1.53051542     -0.54778145
H       0.17473163     -2.06049429      0.21542532
H       0.16615422      1.73822205      0.84644320
H      -2.01566862     -0.43803161      1.27705051
H      -1.86666736      1.17166174      2.14608033
H       0.33683348      0.47745154      2.85585857
H       0.17588843     -0.99370590      2.00861695
