21

 C      1.78497468      0.01903084     -0.75655738
 C      0.26169567     -0.04938498     -0.64482990
 C     -0.38733378      0.74536070     -1.78117350
 C     -0.20655724     -1.50104342     -0.69605062
 C     -0.14883591      0.65444392      0.63242297
 C     -1.33895554      0.33406950      1.43376646
 N     -0.00325989     -0.07261557      1.93471795
 H      2.10822748     -0.41989010     -1.70169265
 H      2.28101523     -0.53480354      0.04598148
 H      2.14277535      1.05130150     -0.73221856
 H     -0.09826761      0.31267334     -2.74024950
 H     -0.06292344      1.78879397     -1.77819683
 H     -1.47794062      0.72260563     -1.71950374
 H      0.12481977     -1.94620245     -1.63531990
 H     -1.29422087     -1.59627653     -0.66950276
 H      0.22615170     -2.12625540      0.09370401
 H      0.21757429      1.67246094      0.72472190
 H     -1.96424855     -0.50379272      1.15532920
 H     -1.81524729      1.10590063      2.02435902
 H      0.38825355      0.41169043      2.73413726
 H      0.22730850     -1.05946701      1.88689564
