16
2071.log
C      1.875489   -0.001848   -0.992386
C      0.419066    0.401508   -0.742704
C     -0.482314   -0.702875   -1.044715
C     -1.206610   -1.633893   -1.272472
C      0.238190    0.914499    0.677163
C     -1.065495    0.904665    1.358224
N      0.005848    0.004215    1.787254
H      2.017618   -0.333687   -2.021737
H      2.168227   -0.814914   -0.325564
H      2.535356    0.848469   -0.807019
H      0.169530    1.227648   -1.421494
H     -1.850230   -2.453153   -1.491125
H      0.932711    1.717010    0.914949
H     -1.906002    0.475623    0.822013
H     -1.314098    1.693013    2.060196
H     -0.183406   -0.927328    1.425012
