17

C       1.70440419     -0.03810219     -1.16082238
C       0.24741297      0.32847695     -0.87101299
C      -0.66036626     -0.78210711     -1.12797828
C      -1.39143107     -1.72403506     -1.27407571
C       0.07165748      0.81394497      0.55774429
C      -1.23745565      0.88255928      1.22019218
N      -0.31014197     -0.22420160      1.55312899
H       2.35456367      0.82297981     -0.99554243
H       1.80846635     -0.35008968     -2.19919560
H       2.03951483     -0.86254066     -0.52829398
H      -0.04059448      1.17356475     -1.50868763
H      -2.03728407     -2.55373227     -1.46075581
H       0.84835320      1.47465128      0.92717887
H      -2.11523875      0.54826811      0.68047943
H      -1.39433332      1.59049104      2.02321161
H       0.13653944     -0.24547770      2.46246843
H      -0.54821543     -1.13084891      1.14427360
