18
2073.log
C      1.640532    0.000055   -2.651583
C      0.423036    0.763847   -2.141759
C      0.219296    0.610988   -0.670428
C     -0.864015    0.097169   -0.098506
C     -1.080584   -0.087674    1.350671
C     -0.589362   -1.305824    2.038556
N      0.001192   -0.000536    2.317411
H      1.784637    0.158489   -3.722805
H      1.529292   -1.072990   -2.478899
H      2.551598    0.325415   -2.142029
H     -0.475727    0.432714   -2.670620
H      0.549711    1.827878   -2.376852
H      1.041796    0.956517   -0.043601
H     -1.694070   -0.214213   -0.731921
H     -2.015240    0.331176    1.719022
H     -0.021503   -2.012153    1.441222
H     -1.162759   -1.738331    2.851627
H      0.891432    0.080321    1.837722
