22
2077.log
C      2.142038   -0.003811   -2.198525
C      0.677087   -0.271049   -2.508113
C     -0.297386    0.344707   -1.510597
C     -0.221072   -0.238216   -0.106899
C     -1.247242    0.357913    0.843672
C     -1.206083   -0.221442    2.255329
N      0.006471    0.008086    3.023336
H      2.791093   -0.418924   -2.973051
H      2.446216   -0.447433   -1.247619
H      2.340820    1.070576   -2.141003
H      0.504898   -1.352927   -2.557384
H      0.448072    0.115753   -3.506698
H     -1.318941    0.219030   -1.887820
H     -0.125885    1.427658   -1.460642
H      0.784423   -0.083108    0.299393
H     -0.366472   -1.325513   -0.159410
H     -2.252421    0.204124    0.431264
H     -1.105368    1.445312    0.899435
H     -1.368257   -1.304255    2.206556
H     -2.045025    0.182250    2.831246
H      0.806324   -0.417394    2.572132
H      0.200450    1.000212    3.092577
