21

C       1.73996678     -0.01510347     -2.91432825
C       0.57763119     -0.41149780     -2.07505905
C      -0.20168174      0.42372635     -1.39494623
C      -1.39683143      0.01436980     -0.59462174
C      -1.26900635      0.36318548      0.89283123
C      -0.13547465     -0.40839438      1.52611966
N       0.07378131      0.02217113      2.95657282
H       2.65175223     -0.52886972     -2.59552864
H       1.91726312      1.06092612     -2.88139935
H       1.57473510     -0.30249927     -3.95693088
H       0.34037812     -1.47554214     -2.05270650
H       0.00857340      1.49288006     -1.43442441
H      -2.29166869      0.51979831     -0.97094600
H      -1.57788105     -1.05937567     -0.70738947
H      -1.08403788      1.43993263      0.99262988
H      -2.21027895      0.14281227      1.40780966
H      -0.33027207     -1.48155603      1.55308338
H       0.80674278     -0.23740656      1.00355813
H      -0.77082477     -0.12960968      3.51207954
H       0.29352293      1.01942494      3.00445040
H       0.83852761     -0.48910438      3.40160681
