20
2094.log
C      1.780406   -0.000574   -2.842938
C      0.622562   -0.413695   -1.999924
C     -0.102697    0.400679   -1.242458
C     -1.274504   -0.000807   -0.407110
C     -1.140633    0.374489    1.067865
C     -0.033631   -0.372292    1.786975
N      0.000136   -0.001044    3.195077
H      2.691443   -0.535864   -2.556105
H      1.974145    1.070650   -2.757197
H      1.603603   -0.230266   -3.898795
H      0.361575   -1.471618   -2.020753
H      0.158759    1.459962   -1.218933
H     -1.439831   -1.079851   -0.501836
H     -2.174995    0.485766   -0.801883
H     -2.084112    0.182124    1.587027
H     -0.958312    1.454339    1.149528
H      0.917342   -0.204132    1.259493
H     -0.235409   -1.447879    1.728079
H      0.223725    0.982905    3.290465
H      0.726777   -0.511819    3.680891
