19

C       0.85016860     -0.03505162     -3.76762622
C       0.32837860     -0.45258030     -2.44786716
C       0.21758464      0.33806210     -1.37168052
C      -0.30665823     -0.13708927     -0.12249779
C      -0.46638529      0.60673152      0.98511039
C      -1.04709892      0.05969109      2.22782108
N       0.03704168     -0.10332926      3.29871120
H       1.70867002     -0.65190474     -4.05224454
H       1.15053409      1.01278660     -3.77963102
H       0.09376045     -0.19313315     -4.54313483
H       0.00765458     -1.48987017     -2.35845267
H       0.52397828      1.37957208     -1.43074370
H      -0.61159299     -1.18363780     -0.09776400
H      -0.21109613      1.66352853      0.97447323
H      -1.79733572      0.70910073      2.68395542
H      -1.47401457     -0.93341825      2.08677988
H       0.47650850      0.79715873      3.49791904
H       0.76979141     -0.72705337      2.95466182
H      -0.33176543     -0.47958462      4.17523941
