19

 C      0.90114059     -0.06506965     -3.65368822
 C      0.37935059     -0.48259834     -2.33392916
 C      0.26855663      0.30804406     -1.25774252
 C     -0.25568624     -0.16710731     -0.00855979
 C     -0.41541330      0.57671348      1.09904839
 C     -0.99612693      0.02967305      2.34175908
 N      0.08801367     -0.13334730      3.41264920
 H      1.75964201     -0.68192277     -3.93830654
 H      1.20150608      0.98276857     -3.66569302
 H      0.14473244     -0.22315119     -4.42919683
 H      0.05862657     -1.51988821     -2.24451467
 H      0.57495027      1.34955404     -1.31680570
 H     -0.56062100     -1.21365584      0.01617400
 H     -0.16012414      1.63351049      1.08841123
 H     -1.74636373      0.67908269      2.79789342
 H     -1.42304258     -0.96343629      2.20071788
 H      0.52748049      0.76714069      3.61185704
 H      0.82076340     -0.75707141      3.06859982
 H     -0.28079344     -0.50960266      4.28917741
