21

 C      0.42491092     -0.01073258     -3.34410115
 C      0.39817861     -0.50021860     -1.94177940
 C      0.72349898      0.21864157     -0.87301537
 C      0.71992879     -0.31107913      0.52584638
 C     -0.27575793      0.43076728      1.40989336
 C     -1.72520123      0.19043522      1.06406250
 N     -0.04682617     -0.00895076      2.84807369
 H     -0.55857415     -0.11711870     -3.81097609
 H      1.11770540     -0.60785499     -3.94427151
 H      0.72818080      1.03509363     -3.40560518
 H      0.10009954     -1.53890637     -1.79914704
 H      1.04182835      1.25239173     -0.99770074
 H      0.47548898     -1.37975657      0.51753267
 H      1.72623362     -0.20830317      0.95680088
 H     -0.05093795      1.50089603      1.41121438
 H     -1.97878854     -0.87222617      1.12333217
 H     -1.89377662      0.50811538      0.03518221
 H     -2.40473270      0.75733138      1.70476886
 H     -0.23208134     -1.01007057      2.94502519
 H     -0.66538718      0.48488734      3.49407133
 H      0.91925388      0.15720596      3.13708113
