20
2116.log
C      1.958258   -0.003517   -0.645676
C      0.526057   -0.453157   -0.629121
C      0.129471   -1.433098   -1.437308
C     -0.408197    0.246958    0.359901
C     -0.374424    1.758109    0.138098
C     -1.848045   -0.233455    0.239284
N      0.001584    0.002787    1.749238
H      2.561792   -0.656779   -1.276598
H      2.400995   -0.005656    0.354786
H      2.052838    1.015207   -1.032843
H      0.833278   -1.924804   -2.100915
H     -0.894439   -1.781416   -1.476747
H     -0.669385    2.008187   -0.883315
H      0.622616    2.169119    0.313381
H     -1.061991    2.242707    0.833744
H     -2.250812   -0.048491   -0.758369
H     -2.458990    0.298133    0.969875
H     -1.930535   -1.302760    0.449401
H      0.919501    0.391631    1.928194
H      0.063327   -0.994830    1.920345
