21

C       0.64305072      0.24690615     -0.03702569
C       2.09042423     -0.08652318     -0.20926620
C       2.36120724     -1.20557468     -1.16188169
C       3.02221581      0.60650561      0.45070233
C       4.50625454      0.41803103      0.38146224
C       5.01832447     -0.12942183      1.69918182
N       6.52898032     -0.20971622      1.69918070
H       0.08651319     -0.62572970      0.31796491
H       0.19997452      0.52747687     -0.99746444
H       0.48924957      1.06599464      0.66528786
H       1.83024908     -2.10733087     -0.84268241
H       3.41547668     -1.45753435     -1.27396254
H       1.97017524     -0.95543807     -2.15259163
H       2.69284925      1.40796066      1.10780976
H       4.98849262      1.38437919      0.17962447
H       4.78304109     -0.25703694     -0.43292907
H       4.65244889     -1.13819019      1.89159072
H       4.74570138      0.50817694      2.54115785
H       6.85947561     -0.82075331      0.94948811
H       6.89434100     -0.57046904      2.58255861
H       6.93939556      0.71330828      1.54195129
