21

C       0.80176733      0.01664301     -2.22520993
C       0.10367472     -0.41856248     -0.97710626
C      -0.22704683     -1.87843350     -0.96942839
C      -0.19340716      0.45156719      0.00533915
C       0.15485560      1.91887134     -0.04494169
C      -0.95794798      0.03981992      1.21518042
N      -0.02218040     -0.04604390      2.41861797
H       0.87223625      1.09597909     -2.33554181
H       0.28050121     -0.38224959     -3.09985751
H       1.81380811     -0.40050948     -2.25679857
H      -0.60958973     -2.26935901     -0.02703966
H       0.66246833     -2.45862332     -1.23088232
H      -0.96869241     -2.09605035     -1.74416129
H       0.07989999      2.39317384      0.93988344
H      -0.53159490      2.47275091     -0.69270636
H       1.16673843      2.09865586     -0.40749102
H      -1.43507697     -0.93329610      1.13802247
H      -1.71217342      0.77902396      1.49367821
H       0.68247390     -0.76826273      2.25912028
H      -0.51618738     -0.25627046      3.28845068
H       0.47317431      0.84003980      2.53759719
