23

C       0.96265884     -0.03005097      0.06627128
C       2.48773749     -0.10183104      0.01426004
C       2.99853641     -0.86071696      1.23754221
C       2.93765470     -0.82654991     -1.25306272
C       3.09962363      1.31203885      0.07622300
C       2.70314739      2.21702279     -1.06742696
N       3.35280481      3.56913654     -0.89847650
H       0.53191510      0.43921897     -0.82305711
H       0.61608300      0.51600204      0.94838879
H       0.54395794     -1.03665083      0.12163106
H       4.08930277     -0.93588232      1.23492905
H       2.59682612     -1.87569551      1.24829555
H       2.69271447     -0.37308577      2.16703261
H       2.53908513     -0.36996227     -2.16372928
H       2.58102974     -1.85827713     -1.23926590
H       4.02814040     -0.85987754     -1.33086193
H       2.79894626      1.77637681      1.02416147
H       4.19262292      1.21390687      0.09561784
H       3.03338143      1.84180596     -2.03592289
H       1.62938064      2.39993725     -1.10758351
H       4.37105810      3.48030716     -0.87658647
H       3.06749676      3.99922005     -0.01599277
H       3.10869710      4.21084139     -1.65535730
