21

C       0.92922091      0.14064943     -0.08738678
C       2.45204517      0.14662578      0.04000232
C       2.94130492      1.43510324      0.70262595
C       2.90310588     -1.02965761      0.83416232
C       3.73891851     -1.97974795      0.41655598
C       4.17383089     -3.09846016      1.28686741
N       3.54991866     -4.40787986      0.81448533
H       0.59949388      1.00373863     -0.66851594
H       0.45264029      0.20170048      0.89499462
H       0.56657423     -0.75951999     -0.58842142
H       2.89185530      0.07813123     -0.96091197
H       2.52802742      1.54043494      1.70949725
H       2.61699337      2.29888355      0.11934705
H       4.03000378      1.46356890      0.77521359
H       2.51769511     -1.08114430      1.85481865
H       4.16719702     -1.93186898     -0.58269315
H       3.85206599     -2.96787446      2.31999656
H       5.25206755     -3.26944999      1.26755624
H       2.53076013     -4.33160970      0.83155009
H       3.82871496     -5.20284085      1.39385645
H       3.82229903     -4.60725032     -0.15002853
