20
2135.log
C      1.499514    0.000585   -1.589934
C      0.001577    0.020379   -1.283620
C     -0.640089   -1.318867   -1.639827
C     -0.280550    0.434833    0.142723
C     -0.792287    1.628204    0.425964
C      0.049155   -0.563588    1.218920
N     -0.002238   -0.000795    2.554888
H      1.669347   -0.220018   -2.647252
H      2.020470   -0.765769   -1.009876
H      1.959413    0.965383   -1.365864
H     -0.451596    0.786308   -1.922291
H     -0.192831   -2.141792   -1.075146
H     -0.498601   -1.538750   -2.701099
H     -1.713383   -1.312561   -1.435837
H     -1.031804    2.332068   -0.364156
H     -1.000894    1.923162    1.446979
H      1.018432   -1.028277    0.974813
H     -0.685174   -1.376916    1.170577
H      0.716081    0.704845    2.665855
H      0.169413   -0.718261    3.246765
