22
2137.log
C      1.393038   -0.000465   -1.570384
C      0.101303    0.623138   -1.053272
C     -0.975777    0.584052   -2.129885
C     -0.390904    0.018437    0.273351
C     -0.758123   -1.457178    0.192392
C      0.603924    0.267698    1.404981
N     -0.000795   -0.001179    2.701583
H      1.722768    0.507476   -2.480434
H      1.255490   -1.056014   -1.819758
H      2.205564    0.069981   -0.843697
H      0.312033    1.680756   -0.843459
H     -1.187302   -0.440298   -2.448222
H     -0.659606    1.141065   -3.015757
H     -1.912019    1.023778   -1.774495
H     -1.304727    0.572411    0.536794
H      0.096506   -2.062764   -0.122848
H     -1.575856   -1.638266   -0.508339
H     -1.067355   -1.812053    1.176596
H      0.998693    1.292554    1.310175
H      1.457946   -0.408640    1.294223
H     -0.709392    0.692138    2.910138
H      0.689493    0.050972    3.439315
