23

 C      1.36918700     -0.08352222     -1.58098872
 C      0.12006646      0.61759642     -1.05946291
 C     -0.96969498      0.64163909     -2.12336156
 C     -0.41441460      0.02768150      0.26535719
 C     -0.68917663     -1.47131623      0.20857494
 C      0.54849423      0.37499586      1.38666218
 N      0.00820450     -0.07257142      2.72198487
 H      2.19226366     -0.09555678     -0.86135408
 H      1.73687359      0.43253376     -2.46934261
 H      1.15931118     -1.11486487     -1.87389394
 H      0.38355459      1.66204452     -0.84590969
 H     -1.25577041     -0.36553614     -2.43595034
 H     -0.61321742      1.16292668     -3.01324423
 H     -1.86698827      1.15852677     -1.77418030
 H     -1.35970934      0.55007242      0.47145227
 H      0.23473580     -2.05197178      0.14157096
 H     -1.29403247     -1.71878389     -0.66348382
 H     -1.26354643     -1.83470176      1.06835311
 H      0.71427984      1.45007098      1.46699002
 H      1.51174412     -0.12377296      1.27148226
 H     -0.88321016      0.38472566      2.92478452
 H      0.65225613      0.13725067      3.48628561
 H     -0.16103302     -1.08081630      2.71353720
