23

C       1.37136139     -0.01714322     -1.58191681
C       0.12224085      0.68397542     -1.06039100
C      -0.96752059      0.70801810     -2.12428965
C      -0.41224021      0.09406050      0.26442910
C      -0.68700225     -1.40493723      0.20764685
C       0.55066862      0.44137486      1.38573409
N       0.01037889     -0.00619242      2.72105678
H       2.19443805     -0.02917778     -0.86228217
H       1.73904798      0.49891276     -2.47027070
H       1.16148556     -1.04848587     -1.87482203
H       0.38572898      1.72842352     -0.84683778
H      -1.25359602     -0.29915713     -2.43687843
H      -0.61104303      1.22930569     -3.01417232
H      -1.86481388      1.22490578     -1.77510839
H      -1.35753495      0.61645142      0.47052418
H       0.23691018     -1.98559278      0.14064286
H      -1.29185809     -1.65240489     -0.66441191
H      -1.26137205     -1.76832276      1.06742501
H       0.71645423      1.51644998      1.46606193
H       1.51391851     -0.05739396      1.27055417
H      -0.88103577      0.45110466      2.92385643
H       0.65443052      0.20362966      3.48535752
H      -0.15885864     -1.01443730      2.71260911
