19

C       0.97969962      0.03974054      0.12466092
C       2.49317870     -0.06183563     -0.08198425
C       3.20085592      1.26436834      0.20577343
C       3.05304258     -1.12889744      0.73321466
C       3.52658479     -2.00145149      1.41581899
C       4.11323021     -3.03605098      2.22338527
N       3.01597163     -3.81033326      2.93588368
H       0.57636015      0.81042280     -0.53360810
H       0.74697796      0.31861254      1.15451661
H       0.47683973     -0.90058869     -0.10625920
H       2.68069893     -0.33752294     -1.12706564
H       3.03074792      1.57830208      1.23746787
H       2.80525139      2.03652649     -0.45572545
H       4.27596312      1.18910023      0.03917974
H       4.76872781     -2.64417535      3.00490364
H       4.67215131     -3.76803318      1.63540581
H       2.46492963     -3.17660509      3.51916904
H       3.39051135     -4.55718361      3.52556733
H       2.37879184     -4.22199921      2.25022536
