23

 C      1.72079732      0.00351689     -2.00454696
 C      0.94359642      0.48294830     -0.78502850
 C      0.27814615      1.82613232     -1.05893977
 C     -0.05794448     -0.59748335     -0.36698598
 C     -0.93493273     -0.28809206      0.83174297
 C     -1.86017512     -1.41523994      1.22839162
 N     -0.03820856      0.03470885      2.01565962
 H      2.22088494     -0.94916214     -1.81627969
 H      2.48146439      0.73129163     -2.29068045
 H      1.05098659     -0.13090090     -2.85834004
 H      1.68592699      0.61789964      0.01966945
 H     -0.47566845      1.73099370     -1.84561581
 H      1.01520117      2.55600955     -1.39719041
 H     -0.21539074      2.25912694     -0.18226386
 H     -0.73901533     -0.78941712     -1.20253928
 H      0.46751790     -1.54452450     -0.18969485
 H     -1.50215764      0.63027286      0.66520934
 H     -1.30704026     -2.33548458      1.43590321
 H     -2.54185780     -1.62299908      0.40311021
 H     -2.47093202     -1.16322310      2.09888668
 H      0.52691114     -0.78005137      2.26542700
 H     -0.58228193      0.30237641      2.83723448
 H      0.60200847      0.79738960      1.78405890
