23

C       1.71647783     -0.00532365     -2.00655675
C       0.93927693      0.47410776     -0.78703829
C       0.27382666      1.81729178     -1.06094956
C      -0.06226397     -0.60632389     -0.36899577
C      -0.93925222     -0.29693260      0.82973318
C      -1.86449461     -1.42408048      1.22638183
N      -0.04252805      0.02586831      2.01364983
H       2.21656545     -0.95800268     -1.81828948
H       2.47714490      0.72245109     -2.29269024
H       1.04666710     -0.13974144     -2.86034983
H       1.68160750      0.60905910      0.01765966
H      -0.47998794      1.72215316     -1.84762560
H       1.01088168      2.54716901     -1.39920020
H      -0.21971023      2.25028640     -0.18427365
H      -0.74333482     -0.79825766     -1.20454907
H       0.46319841     -1.55336504     -0.19170464
H      -1.50647713      0.62143232      0.66319955
H      -1.31135975     -2.34432512      1.43389342
H      -2.54617729     -1.63183962      0.40110042
H      -2.47525151     -1.17206364      2.09687689
H       0.52259165     -0.78889191      2.26341721
H      -0.58660142      0.29353587      2.83522469
H       0.59768898      0.78854906      1.78204911
