19

C       0.64131937      0.11553045     -0.02701959
C       2.08943668      0.13477571     -0.03211493
C       3.29142269      0.16814765     -0.03330098
C       4.74662028      0.19145046     -0.01848603
C       5.29852236      0.56327432      1.35928502
C       5.21714059     -1.18284780     -0.48635910
N       6.72272190     -1.24611964     -0.56164043
H       0.24922807      1.01701174      0.44896121
H       0.26536258     -0.74986656      0.52280005
H       0.24976728      0.07139297     -1.04547144
H       5.08654760      0.93825499     -0.75125479
H       5.01910544     -0.18258198      2.10703816
H       4.88190701      1.51906435      1.67475201
H       6.38771023      0.68720144      1.36104734
H       4.90571623     -1.96248937      0.20963215
H       4.84002464     -1.41943196     -1.48064786
H       7.13530078     -1.04377045      0.35180030
H       7.08627049     -0.55620822     -1.22276071
H       7.04688648     -2.16775155     -0.85987853
