19

 C      1.40934687      0.81933936      0.00505581
 C      2.77790639      0.36041948      0.09484440
 C      3.91307236     -0.03322835      0.16088080
 C      5.27892476     -0.52460481      0.21782528
 C      6.04562606     -0.26068796     -1.07091632
 C      5.35679455     -1.98221218      0.65007372
 N      5.97146902      0.30168847      1.32144531
 H      0.74230764     -0.01960395     -0.20542496
 H      1.29865246      1.55737475     -0.79192940
 H      1.09323076      1.27583354      0.94559781
 H      5.57593189     -0.82429688     -1.87635356
 H      7.08449474     -0.59153095     -0.98926126
 H      6.01620318      0.79504026     -1.34737969
 H      4.86263528     -2.59527040     -0.10285699
 H      4.84334465     -2.14879723      1.59904368
 H      6.39462932     -2.31688789      0.72939208
 H      5.94092093      1.29524948      1.08503591
 H      6.94700170      0.02012369      1.43840785
 H      5.48352142      0.17599736      2.21032410
