19

C       1.22180974      0.87803068     -0.01232510
C       2.59036926      0.41911080      0.07746349
C       3.72553523      0.02546297      0.14349989
C       5.09138763     -0.46591349      0.20044437
C       5.85808893     -0.20199664     -1.08829723
C       5.16925743     -1.92352086      0.63269281
N       5.78393190      0.36037979      1.30406440
H       0.55477051      0.03908737     -0.22280587
H       1.11111533      1.61606607     -0.80931031
H       0.90569363      1.33452486      0.92821690
H       5.38839476     -0.76560556     -1.89373447
H       6.89695761     -0.53283963     -1.00664217
H       5.82866605      0.85373158     -1.36476060
H       4.67509815     -2.53657908     -0.12023790
H       4.65580753     -2.09010591      1.58166277
H       6.20709220     -2.25819657      0.71201117
H       5.75338380      1.35394080      1.06765500
H       6.75946458      0.07881501      1.42102694
H       5.29598430      0.23468868      2.19294319
