21

 C      3.26353548     -1.88839531      0.52940223
 C      3.79883514     -0.63692789     -0.16026259
 C      3.19553497      0.61027572      0.38531074
 C      3.86681481      1.60591362      0.95338081
 C      3.22120463      2.83766825      1.50992043
 C      3.61428462      4.05237703      0.69251930
 N      3.03963633      5.31398055      1.29505009
 H      3.69497023     -2.78575933      0.08346545
 H      2.17735196     -1.95961577      0.43479978
 H      3.50918697     -1.88749400      1.59319191
 H      4.88781152     -0.59056526     -0.07439408
 H      3.56870563     -0.69522111     -1.23061836
 H      2.10820742      0.67848194      0.32673990
 H      4.95005992      1.54655679      1.03926085
 H      2.13252426      2.71908987      1.50318663
 H      3.53139332      2.98608576      2.55331580
 H      4.69535132      4.19334408      0.65915298
 H      3.23683685      3.99429000     -0.32862812
 H      3.37448427      5.44366216      2.25224441
 H      2.01938355      5.26429959      1.33415964
 H      3.29309196      6.14526397      0.75762175
