21

 C      2.18772784     -0.00848454     -1.94739370
 C      0.96140029     -0.77200458     -1.45286325
 C     -0.13241871      0.14429274     -1.02611905
 C     -0.80612716      0.20504038      0.12728323
 C     -1.91360686      1.19042349      0.36266624
 C     -0.54399306     -0.74786436      1.24511786
 N      0.06894065     -0.00889211      2.42597567
 H      2.94982038     -0.70066012     -2.30728776
 H      2.63006168      0.59842920     -1.15394691
 H      1.92905962      0.65966385     -2.77130647
 H      0.57654019     -1.38688514     -2.27518183
 H      1.25270098     -1.47269277     -0.66571297
 H     -0.42667732      0.86615688     -1.78672174
 H     -2.06588693      1.82068286     -0.51253586
 H     -1.71813555      1.87272390      1.20069016
 H     -2.85888100      0.68218068      0.57884936
 H      0.15579435     -1.53949633      0.98890165
 H     -1.46261938     -1.19655058      1.63042464
 H      0.96119676      0.40796086      2.15338081
 H      0.22763010     -0.62259219      3.22737022
 H     -0.54455122      0.75181069      2.72430529
