21

C       2.09428943     -0.04351834     -2.02176963
C       0.86796188     -0.80703838     -1.52723918
C      -0.22585712      0.10925894     -1.10049498
C      -0.89956557      0.17000658      0.05290729
C      -2.00704527      1.15538969      0.28829030
C      -0.63743147     -0.78289816      1.17074192
N      -0.02449777     -0.04392591      2.35159974
H       2.85638197     -0.73569392     -2.38166369
H       2.53662327      0.56339540     -1.22832284
H       1.83562121      0.62463005     -2.84568240
H       0.48310178     -1.42191894     -2.34955776
H       1.15926257     -1.50772657     -0.74008890
H      -0.52011573      0.83112308     -1.86109767
H      -2.15932534      1.78564906     -0.58691180
H      -1.81157396      1.83769010      1.12631422
H      -2.95231941      0.64714688      0.50447342
H       0.06235594     -1.57453013      0.91452572
H      -1.55605780     -1.23158438      1.55604870
H       0.86775834      0.37292706      2.07900488
H       0.13419168     -0.65762599      3.15299429
H      -0.63798964      0.71677689      2.64992936
