23

C       1.72107739      0.04528639     -1.51999905
C       0.44887958      0.87183715     -1.41025953
C      -0.77183903      0.14602769     -0.83160914
C      -1.26845351     -0.96977087     -1.74153154
C      -0.53402026     -0.41455088      0.57555445
C      -0.12646796      0.64873201      1.56772856
N      -0.00530942      0.05365414      2.94998628
H       2.51771755      0.63336140     -1.97816389
H       1.57915809     -0.84307521     -2.13794690
H       2.09487945     -0.28871232     -0.54646894
H       0.65183236      1.78005640     -0.82995278
H       0.17009141      1.23185306     -2.40464730
H      -1.57661158      0.88807720     -0.75053306
H      -0.53411091     -1.77322222     -1.83603278
H      -1.47097426     -0.58546986     -2.74264285
H      -2.19403939     -1.40968024     -1.36277644
H       0.23539777     -1.19485742      0.53319450
H      -1.45942767     -0.89513667      0.91626616
H      -0.86309897      1.45045396      1.64224558
H       0.84537331      1.08678544      1.34026418
H      -0.89486004     -0.35222133      3.24834175
H       0.27383798      0.74792806      3.64589345
H       0.68807498     -0.69755189      2.95877501
