23

 C      1.77710728     -0.00222498     -1.49246620
 C      0.50490947      0.82432578     -1.38272668
 C     -0.71580914      0.09851631     -0.80407629
 C     -1.21242362     -1.01728225     -1.71399869
 C     -0.47799037     -0.46206226      0.60308730
 C     -0.07043808      0.60122063      1.59526141
 N      0.05072046      0.00614276      2.97751913
 H      2.57374744      0.58585003     -1.95063104
 H      1.63518798     -0.89058658     -2.11041405
 H      2.15090934     -0.33622369     -0.51893609
 H      0.70786224      1.73254503     -0.80241993
 H      0.22612130      1.18434168     -2.37711445
 H     -1.52058169      0.84056582     -0.72300021
 H     -0.47808102     -1.82073360     -1.80849993
 H     -1.41494437     -0.63298124     -2.71511000
 H     -2.13800950     -1.45719162     -1.33524359
 H      0.29142766     -1.24236879      0.56072735
 H     -1.40339778     -0.94264805      0.94379901
 H     -0.80706909      1.40294258      1.66977843
 H      0.90140319      1.03927407      1.36779703
 H     -0.83883015     -0.39973271      3.27587460
 H      0.32986786      0.70041669      3.67342630
 H      0.74410487     -0.74506326      2.98630786
