20
2169.log
C      1.775609   -0.000164   -2.179617
C      0.518818    0.737820   -1.726517
C     -0.235059    0.042932   -0.624289
C     -0.913705   -1.232962   -1.018626
C     -0.277395    0.581194    0.596294
C     -0.953529    0.060541    1.820803
N      0.000596   -0.000348    2.924325
H      2.288647    0.557582   -2.966632
H      1.548351   -0.991315   -2.578301
H      2.471783   -0.125825   -1.346805
H     -0.147139    0.866981   -2.589468
H      0.793389    1.741764   -1.391959
H     -1.697812   -1.032310   -1.757257
H     -1.373894   -1.750727   -0.178448
H     -0.209565   -1.922314   -1.493576
H      0.254080    1.517536    0.758102
H     -1.456280   -0.893807    1.616436
H     -1.739984    0.767132    2.114200
H      0.726487   -0.675632    2.716880
H     -0.456843   -0.302045    3.775616
