21

C       1.63776525      0.07466221     -2.24939675
C       0.42486965      0.84667788     -1.73600201
C      -0.28394544      0.18382817     -0.59221961
C      -0.84014401     -1.17295720     -0.87280670
C      -0.39818816      0.83288226      0.57685857
C      -1.10503541      0.34045057      1.78172437
N      -0.09547983     -0.13044513      2.82799386
H       2.12656147      0.63944217     -3.04399091
H       1.36354341     -0.89688114     -2.66334105
H       2.37211650     -0.08501616     -1.45609504
H       0.72522105      1.85482798     -1.44166070
H      -0.29593529      0.96107191     -2.55455345
H      -1.44051647     -1.59295000     -0.06629212
H      -0.03238541     -1.87634602     -1.09164956
H      -1.46466578     -1.13783344     -1.76982175
H       0.02102027      1.83312743      0.65482924
H      -1.68490174      1.12150337      2.27631304
H      -1.75487825     -0.51225966      1.59536206
H       0.54656797      0.62801871      3.06573442
H       0.46810404     -0.89266964      2.44718428
H      -0.54368884     -0.45209526      3.68894878
