22
2171.log
C      2.140194    0.001203   -0.690399
C      0.853648    0.806370   -0.584539
C     -0.435807    0.011011   -0.322820
C     -1.589565    1.001671   -0.194854
C     -0.721640   -0.948683   -1.474492
C     -0.325266   -0.813315    0.967416
N     -0.001466   -0.000425    2.130337
H      2.991445    0.662632   -0.868087
H      2.109307   -0.715111   -1.514475
H      2.353139   -0.560964    0.223457
H      0.711965    1.375618   -1.510464
H      0.957985    1.556614    0.207053
H     -1.664909    1.628679   -1.088052
H     -1.447005    1.647037    0.673828
H     -2.541949    0.477083   -0.073341
H     -0.805341   -0.407134   -2.420996
H     -1.665044   -1.477852   -1.311042
H      0.062598   -1.701929   -1.586065
H      0.385347   -1.637793    0.800557
H     -1.298657   -1.281008    1.148870
H      0.978735    0.252648    2.133081
H     -0.172289   -0.516190    2.983227
