23

 C      2.27631846     -0.02994650     -1.06923448
 C      1.07545208     -0.94130595     -0.86785297
 C     -0.26991596     -0.23633912     -0.66098783
 C     -1.40244993     -1.24866641     -0.53273318
 C     -0.23485262      0.78354231      0.47826220
 C     -1.50668611      1.56863746      0.70637962
 N      0.11921808      0.06420019      1.76891666
 H      3.15814057     -0.61434042     -1.33435923
 H      2.54251627      0.54692044     -0.17735093
 H      2.09992027      0.68245429     -1.87901023
 H      1.26544655     -1.64958707     -0.04656843
 H      0.96572934     -1.58381570     -1.74527900
 H     -0.45871728      0.37299791     -1.55283446
 H     -1.28720895     -1.90603814      0.33787618
 H     -1.40604945     -1.90758450     -1.40211690
 H     -2.38584496     -0.78011485     -0.48109888
 H      0.59841020      1.47030953      0.31713700
 H     -2.34446308      0.92984624      0.99343812
 H     -1.78166351      2.07713157     -0.21847404
 H     -1.37536386      2.33721365      1.47206385
 H     -0.60336920     -0.62134928      1.99896665
 H      0.19666436      0.71582678      2.55070504
 H      1.00482035     -0.43679197      1.67197865
