23

C       2.27377542     -0.01795642     -1.10880910
C       1.07290904     -0.92931587     -0.90742759
C      -0.27245900     -0.22434904     -0.70056245
C      -1.40499297     -1.23667633     -0.57230780
C      -0.23739566      0.79553239      0.43868758
C      -1.50922915      1.58062754      0.66680500
N       0.11667504      0.07619027      1.72934204
H       3.15559753     -0.60235034     -1.37393385
H       2.53997323      0.55891052     -0.21692555
H       2.09737723      0.69444437     -1.91858485
H       1.26290351     -1.63759699     -0.08614305
H       0.96318630     -1.57182562     -1.78485362
H      -0.46126032      0.38498799     -1.59240908
H      -1.28975199     -1.89404806      0.29830156
H      -1.40859249     -1.89559442     -1.44169152
H      -2.38838800     -0.76812477     -0.52067350
H       0.59586716      1.48229961      0.27756238
H      -2.34700612      0.94183632      0.95386350
H      -1.78420655      2.08912165     -0.25804866
H      -1.37790690      2.34920373      1.43248923
H      -0.60591224     -0.60935920      1.95939203
H       0.19412132      0.72781686      2.51113042
H       1.00227731     -0.42480189      1.63240403
