22
2176.log
C      2.408732    0.000080   -0.569741
C      1.015563   -0.607572   -0.538368
C     -0.101911    0.385594   -0.221993
C     -1.488073   -0.241272   -0.393261
C     -1.874873   -0.539199   -1.833529
C      0.042506    1.004289    1.168319
N      0.001529    0.000283    2.222557
H      3.148889   -0.736567   -0.891084
H      2.718045    0.358935    0.414405
H      2.460272    0.843895   -1.265076
H      0.984201   -1.409669    0.205330
H      0.812379   -1.069494   -1.509204
H     -0.029128    1.220241   -0.935004
H     -2.234560    0.438797    0.035713
H     -1.540117   -1.166516    0.193158
H     -1.843366    0.368696   -2.442928
H     -2.888646   -0.942406   -1.892882
H     -1.207533   -1.270395   -2.294661
H     -0.730500    1.782629    1.276385
H      1.005989    1.516518    1.237029
H     -0.931510   -0.380184    2.319242
H      0.243237    0.410776    3.114776
