19

C       1.33070952     -0.00212496     -3.20094023
C      -0.16845888      0.12163183     -2.93742234
C      -0.51191377      0.02076670     -1.52932724
C      -0.79770955     -0.06786181     -0.36459548
C      -1.13380478     -0.17117117      1.04216043
C       0.10454900      0.08638698      1.88472942
N      -0.22465846     -0.01267577      3.35480677
H       1.52765810      0.07651194     -4.27069721
H       1.71164912     -0.96419217     -2.85517945
H       1.88517399      0.78969420     -2.69489610
H      -0.54192950      1.07731247     -3.31874755
H      -0.71219558     -0.65839933     -3.47993675
H      -1.91755057      0.55451923      1.29609859
H      -1.53558597     -1.16914159      1.26141835
H       0.88614143     -0.64639516      1.68594588
H       0.50437696      1.08609867      1.71733988
H      -0.58523066     -0.94065511      3.58829209
H      -0.94073142      0.66882877      3.61629828
H       0.59713862      0.15845274      3.93761322
