20
2236.log
C      1.186188    0.000211   -3.240026
C      0.299999    0.584314   -2.152816
C      0.569970   -0.016342   -0.782578
C     -0.312148    0.567119    0.303830
N      0.000177   -0.000015    1.600265
C     -1.046128    0.076018    2.595093
C     -0.712589   -1.211479    1.946756
H      0.976669    0.449315   -4.213594
H      1.036541   -1.079186   -3.332849
H      2.243827    0.166773   -3.017514
H     -0.752928    0.431115   -2.417156
H      0.444550    1.670031   -2.106690
H      1.617537    0.140551   -0.504367
H      0.421946   -1.102268   -0.821904
H     -1.375497    0.413168    0.042680
H     -0.154726    1.649682    0.366615
H     -1.984505    0.544986    2.306964
H     -0.723674    0.280891    3.610311
H     -1.428405   -1.599500    1.224752
H     -0.143480   -1.965525    2.479559
