21

 C      1.42491321     -0.33242629      0.83315450
 C      2.76824076     -0.78168503      0.29924144
 C      3.94106346     -0.31866763      1.13675881
 N      2.93258421     -0.26659145     -1.09188363
 C      3.80746615     -0.93773781     -2.07289588
 C      2.34666332     -0.94484895     -2.27811854
 C      1.67959089     -0.10038185     -3.31368869
 H      0.59887739     -0.67189636      0.20537100
 H      1.37699684      0.75634191      0.92219224
 H      1.27704723     -0.74828680      1.83037820
 H      2.78690448     -1.87096723      0.19564686
 H      3.94830227      0.76961600      1.24086173
 H      4.89707346     -0.63903467      0.71817690
 H      3.85794612     -0.74257629      2.13809742
 H      2.93183930      0.74852131     -1.14748799
 H      4.42275371     -0.27263469     -2.66615502
 H      4.29924349     -1.82122667     -1.68592925
 H      1.83072424     -1.85355337     -1.98530731
 H      2.24532061      0.81105979     -3.52074716
 H      0.66588107      0.16806294     -3.01242565
 H      1.61432198     -0.66752742     -4.24411921
