21

 C      0.83331985      0.27201129      0.17342039
 C      2.23553599      0.85318593      0.07933424
 C      3.28208178     -0.24077441      0.06442216
 N      4.65661386      0.31220882     -0.02338452
 C      5.83801211     -0.63261090     -0.11057481
 C      6.48788370      0.28164822     -1.15430850
 C      5.12368673      0.96176604     -1.31232898
 H      0.09173361      1.07056106      0.18682328
 H      0.70541173     -0.31544193      1.08520305
 H      0.61093304     -0.37229372     -0.68003862
 H      2.32414193      1.46130517     -0.82699871
 H      2.41661274      1.51997175      0.93049524
 H      3.24330425     -0.84515762      0.97481182
 H      3.15852855     -0.90925411     -0.79096279
 H      4.79321223      0.96272840      0.75061917
 H      6.33145461     -0.78781090      0.84661270
 H      5.48651253     -1.58280740     -0.51054195
 H      7.24505564      0.94013523     -0.73088819
 H      6.88963084     -0.20477194     -2.03894825
 H      4.52363457      0.56674361     -2.13104227
 H      5.06433417      2.04755648     -1.29235122
