21

C       1.02521354      0.27503062      0.15724738
C       2.42742968      0.85620526      0.06316123
C       3.47397547     -0.23775508      0.04824915
N       4.84850755      0.31522815     -0.03955753
C       6.02990580     -0.62959157     -0.12674782
C       6.67977739      0.28466755     -1.17048151
C       5.31558043      0.96478537     -1.32850199
H       0.28362730      1.07358039      0.17065027
H       0.89730542     -0.31242260      1.06903003
H       0.80282673     -0.36927439     -0.69621164
H       2.51603563      1.46432450     -0.84317172
H       2.60850643      1.52299108      0.91432223
H       3.43519794     -0.84213829      0.95863881
H       3.35042224     -0.90623478     -0.80713580
H       4.98510592      0.96574773      0.73444616
H       6.52334830     -0.78479157      0.83043969
H       5.67840622     -1.57978807     -0.52671496
H       7.43694934      0.94315456     -0.74706120
H       7.08152453     -0.20175261     -2.05512126
H       4.71552827      0.56976294     -2.14721528
H       5.25622787      2.05057581     -1.30852423
