19

 C      1.97776446     -2.87477058      0.30931307
 C      2.32474259     -1.64602901     -0.04500082
 C      3.20522136     -0.77871208      0.78613426
 N      4.48670508     -0.48210446      0.08118039
 C      5.56027880      0.31998051      0.78988136
 C      6.62777888     -0.62745063      0.23261928
 C      5.49438784     -1.59624275     -0.12433056
 H      1.31209041     -3.46991280     -0.30380999
 H      2.32433366     -3.32469146      1.23456765
 H      1.93404177     -1.21205435     -0.96307620
 H      3.46857503     -1.25719347      1.73089514
 H      2.74414229      0.18985120      1.00246632
 H      4.27052826     -0.05095321     -0.81758738
 H      5.40251014      0.23108099      1.86383322
 H      5.57096205      1.36794818      0.49775175
 H      7.13746395     -0.22682826     -0.64249321
 H      7.36594856     -0.99133681      0.94198417
 H      5.45516227     -2.02958206     -1.12082941
 H      5.31094536     -2.36628758      0.62336448
