19

C       1.90291951     -2.87660690      0.27944915
C       2.24989764     -1.64786533     -0.07486474
C       3.13037641     -0.78054840      0.75627034
N       4.41186013     -0.48394078      0.05131647
C       5.48543385      0.31814419      0.76001744
C       6.55293393     -0.62928695      0.20275536
C       5.41954289     -1.59807907     -0.15419448
H       1.23724546     -3.47174912     -0.33367392
H       2.24948871     -3.32652778      1.20470373
H       1.85919682     -1.21389067     -0.99294012
H       3.39373008     -1.25902979      1.70103122
H       2.66929734      0.18801488      0.97260240
H       4.19568331     -0.05278953     -0.84745130
H       5.32766519      0.22924467      1.83396930
H       5.49611710      1.36611186      0.46788783
H       7.06261900     -0.22866458     -0.67235713
H       7.29110361     -0.99317313      0.91212025
H       5.38031732     -2.03141838     -1.15069333
H       5.23610041     -2.36812390      0.59350056
