17

 C      3.67020439     -2.55969668      0.08998481
 C      3.62784231     -1.36257549      0.10376508
 C      3.58336556      0.08206730      0.10569338
 N      4.11615390      0.61858232     -1.17724610
 C      4.26223686      2.11729867     -1.35420150
 C      5.61377381      1.89574561     -2.04121544
 C      5.59454518      0.46720429     -1.48512523
 H      3.69715564     -3.62709564      0.09138506
 H      2.56070283      0.45443001      0.21784660
 H      4.19103773      0.50540736      0.90960677
 H      3.56685870      0.22163013     -1.94032947
 H      3.44195181      2.56050762     -1.91475074
 H      4.33518916      2.57486255     -0.36812160
 H      5.54830362      1.93018794     -3.12779798
 H      6.43150563      2.52997721     -1.71032661
 H      6.12961297      0.34631051     -0.54402465
 H      5.80626234     -0.36968938     -2.14582291
