21

C       2.21021125      0.02035204     -0.22002284
C       0.86951118      0.72652566     -0.22875575
C       0.30454248      0.89814359     -1.62137424
N      -0.06432211     -0.02516511      0.68410058
C      -1.44711803      0.49734005      1.01053501
C      -1.97640089     -0.94069407      1.02072384
C      -0.69265237     -1.34856413      0.28955716
H       2.62281318     -0.06977645      0.78849624
H       2.92492001      0.59275248     -0.81182296
H       2.14025656     -0.97584595     -0.66392827
H       0.96345982      1.70698505      0.25001581
H       0.27174886     -0.04383114     -2.17200036
H       0.96661480      1.56700713     -2.17284138
H      -0.68616837      1.35444353     -1.63363942
H       0.43884655     -0.16427784      1.56038216
H      -1.47253876      1.08473854      1.92607500
H      -1.80801094      1.09052319      0.17360007
H      -2.04363576     -1.35943953      2.02412644
H      -2.90984914     -1.11790543      0.49363283
H      -0.80043397     -1.37766878     -0.79202941
H      -0.12916737     -2.21123185      0.63759049
