21

 C      2.30884518      0.04038046     -0.32773095
 C      0.96814511      0.74655408     -0.33646386
 C      0.40317641      0.91817201     -1.72908235
 N      0.03431182     -0.00513669      0.57639247
 C     -1.34848410      0.51736848      0.90282690
 C     -1.87776696     -0.92066564      0.91301573
 C     -0.59401844     -1.32853571      0.18184905
 H      2.72144711     -0.04974803      0.68078813
 H      3.02355394      0.61278090     -0.91953107
 H      2.23889049     -0.95581753     -0.77163638
 H      1.06209375      1.72701347      0.14230770
 H      0.37038279     -0.02380272     -2.27970847
 H      1.06524873      1.58703555     -2.28054949
 H     -0.58753444      1.37447195     -1.74134753
 H      0.53748048     -0.14424941      1.45267405
 H     -1.37390483      1.10476697      1.81836689
 H     -1.70937701      1.11055161      0.06589196
 H     -1.94500183     -1.33941110      1.91641833
 H     -2.81121521     -1.09787701      0.38592472
 H     -0.70180004     -1.35764036     -0.89973752
 H     -0.03053344     -2.19120343      0.52988238
