21

C       1.02109546     -0.18121346     -0.39387851
C       2.48601822      0.04977099     -0.05616164
C       2.95872127      1.39255845     -0.56844476
N       4.40690061      1.62177877     -0.24307655
C       4.94374752      2.92041968     -0.69229870
C       4.79430789      4.09599867      0.20845927
C       6.14169971      3.47325200     -0.00201957
H       0.69502589     -1.15095056     -0.01850139
H       0.85469023     -0.16973869     -1.47309061
H       0.38305297      0.58162279      0.05732849
H       2.62644477     -0.00035302      1.02975316
H       3.09559667     -0.74833484     -0.49548029
H       2.87093002      1.46928945     -1.65358540
H       2.40959290      2.22282857     -0.12165457
H       4.53100914      1.53994814      0.76869689
H       4.96147017      0.86430717     -0.65044176
H       4.83038789      3.03623902     -1.76244715
H       4.32061626      3.94982964      1.17329458
H       4.57351781      5.04911393     -0.25314030
H       6.87122489      3.98508742     -0.61544410
H       6.56941372      2.91199489      0.82141789
