19

C       2.41904151     -1.36213274     -0.06239598
C       2.25728701     -0.06754861     -0.29649651
C       2.91164224      0.63592855     -1.43360090
N       3.96165663      1.59895646     -0.92824260
C       4.64792935      2.36975565     -1.98085001
C       4.02333670      3.63731983     -2.44984456
C       5.27081171      3.67328673     -1.61948042
H       1.91480539     -1.85134718      0.76207985
H       3.04187741     -1.98682966     -0.69542855
H       1.60086622      0.52482776      0.33713717
H       3.42462689     -0.05673105     -2.10129991
H       2.21501300      1.23868714     -2.01927157
H       3.52229695      2.24544580     -0.26884935
H       4.64404633      1.06915142     -0.37922674
H       5.13692022      1.71064933     -2.68679420
H       3.10070367      3.96232191     -1.98117445
H       4.08473003      3.85802608     -3.50706691
H       5.18367319      4.02261732     -0.59650985
H       6.21361684      3.91593653     -2.09132395
