17

 C      1.01154625      0.00316203      0.17075567
 C      2.19481696      0.14013598      0.04339451
 C      3.62309750      0.27897480     -0.11241915
 N      4.26689499     -1.08204686     -0.21124773
 C      5.73455605     -1.05052341     -0.35328250
 C      6.56083816     -0.96143982      0.88242570
 C      6.51554309     -2.23654372      0.09625250
 H     -0.04485356     -0.10276143      0.28597782
 H      3.88599422      0.82119986     -1.02337425
 H      4.08720171      0.78585731      0.73589365
 H      4.01009515     -1.61727281      0.62210052
 H      3.84600485     -1.58225348     -0.99931217
 H      6.02649706     -0.51337392     -1.24683578
 H      6.05542197     -0.94858785      1.84204775
 H      7.44807033     -0.34392042      0.83968481
 H      7.36867012     -2.51808146     -0.50659657
 H      5.98080846     -3.07493605      0.52890085
