21

 C      1.96156099     -0.02923512      0.10875870
 C      0.49961408     -0.43186674      0.19694438
 C      0.30779678     -1.93596988      0.11122573
 N      0.02137789     -0.01504019      1.58319124
 C     -0.33538617      0.29084496     -0.83784851
 C     -1.79643456      0.58697529     -0.69913354
 C     -0.80028602      1.70818871     -0.71483301
 H      2.57160247     -0.54241366      0.85721494
 H      2.08969443      1.05057699      0.21695608
 H      2.34760065     -0.30695217     -0.87232977
 H      0.89464396     -2.46602823      0.86645167
 H      0.64559965     -2.28242716     -0.86579797
 H     -0.74427082     -2.21382929      0.21079246
 H      0.57746378     -0.47949506      2.30274518
 H     -0.95812646     -0.26984751      1.72284746
 H      0.11302643      0.99450824      1.71157110
 H     -0.02046959     -0.00405356     -1.83349805
 H     -2.42570774      0.43475435     -1.56588091
 H     -2.31518166      0.38611767      0.23378477
 H     -0.64637972      2.25982338      0.20820112
 H     -0.73588805      2.33897768     -1.59156933
