21

C       1.88169807      0.03972118      0.00852638
C       0.41975116     -0.36291044      0.09671206
C       0.22793386     -1.86701358      0.01099341
N      -0.05848503      0.05391611      1.48295892
C      -0.41524909      0.35980126     -0.93808083
C      -1.87629748      0.65593159     -0.79936587
C      -0.88014894      1.77714501     -0.81506533
H       2.49173955     -0.47345736      0.75698262
H       2.00983151      1.11953329      0.11672376
H       2.26773773     -0.23799587     -0.97256209
H       0.81478104     -2.39707193      0.76621935
H       0.56573673     -2.21347086     -0.96603029
H      -0.82413374     -2.14487299      0.11056014
H       0.49760086     -0.41053876      2.20251286
H      -1.03798938     -0.20089121      1.62261514
H       0.03316351      1.06346454      1.61133878
H      -0.10033251      0.06490274     -1.93373037
H      -2.50557066      0.50371065     -1.66611324
H      -2.39504458      0.45507397      0.13355244
H      -0.72624264      2.32877968      0.10796880
H      -0.81575097      2.40793398     -1.69180165
