21

C       1.76511138      0.01854191      0.14762848
C       0.25678731     -0.17228241      0.03644513
C      -0.50022509      0.52929516      1.15139794
N      -0.06416011      0.04017717      2.51108051
C      -0.27737516      0.34892295     -1.27587346
C      -0.25850266     -0.53021764     -2.48672131
C      -1.56182352     -0.18486886     -1.83971578
H       2.25854272     -0.43924962     -0.71006743
H       2.20554483     -0.45154689      1.03486615
H       2.03094413      1.07981893      0.14902327
H       0.02217043     -1.24504169      0.08561829
H      -1.57396684      0.35305513      1.08434183
H      -0.31728626      1.60558872      1.14363771
H      -0.24104274     -0.96142115      2.61150827
H      -0.55329850      0.52336875      3.26639733
H       0.93995152      0.18722764      2.63536462
H      -0.07325404      1.40248421     -1.44839333
H      -0.02018952     -0.07577609     -3.43917826
H       0.10776086     -1.54367153     -2.37132797
H      -2.07132220     -0.97274586     -1.29528523
H      -2.22400654      0.50434619     -2.34702277
