20
2348.log
C      1.837483    0.000877    0.314148
C      0.325258   -0.146859    0.231019
C     -0.376083    0.566487    1.383617
N     -0.000586   -0.000576    2.670970
C     -0.205530    0.342860   -1.092866
C     -0.156374   -0.541609   -2.298990
C     -1.474048   -0.215845   -1.659990
H      2.204974   -0.325307    1.287878
H      2.126138    1.048585    0.180495
H      2.332044   -0.582111   -0.466226
H      0.076186   -1.216439    0.306511
H     -1.460363    0.551534    1.194297
H     -0.071354    1.619528    1.379154
H     -0.388782   -0.931099    2.771216
H     -0.373551    0.555102    3.429745
H     -0.030515    1.400246   -1.278264
H      0.232424   -1.544866   -2.165925
H      0.071665   -0.099067   -3.260682
H     -1.968443   -1.002535   -1.101013
H     -2.148666    0.449819   -2.184005
