20
2349.log
C      2.236369   -0.000216   -0.906907
C      1.285127   -0.617267    0.106463
C      0.296702    0.381240    0.708553
N     -0.000686   -0.000467    2.089849
C     -0.967824    0.601364   -0.110064
C     -1.138935    0.232545   -1.552550
C     -1.859890   -0.541465   -0.492027
H      1.705252    0.494337   -1.723235
H      2.892937   -0.755448   -1.345248
H      2.870197    0.751597   -0.428741
H      0.749744   -1.462079   -0.343468
H      1.863386   -1.032750    0.935577
H      0.816683    1.345376    0.769470
H     -0.516964   -0.875072    2.089219
H     -0.621860    0.683930    2.507814
H     -1.501956    1.499983    0.188586
H     -0.323863   -0.269293   -2.057765
H     -1.711378    0.898511   -2.186773
H     -1.511819   -1.549328   -0.292896
H     -2.930830   -0.415848   -0.392071
