23

C       1.88051109     -0.02640623     -0.66008843
C       3.08487571     -0.85548294     -1.07938297
C       3.50021965     -0.66143399     -2.52297915
N       3.92030613      0.75113479     -2.79039503
C       4.32786715      1.03978770     -4.20245114
C       4.71391516      2.49297893     -4.38503759
C       3.58470473      3.47652661     -4.11822526
H       1.57970024     -0.28177691      0.35612266
H       1.02166932     -0.20997147     -1.31091381
H       2.08120156      1.05041619     -0.65228223
H       3.93856428     -0.66344567     -0.41954192
H       2.85891375     -1.91874038     -0.96502217
H       4.34648622     -1.29386600     -2.79462536
H       2.67831355     -0.87095988     -3.21055059
H       3.15381173      1.37697386     -2.53418094
H       4.69327752      0.99180854     -2.16568188
H       5.15325204      0.36443533     -4.43173089
H       3.47542361      0.76749981     -4.82805932
H       5.05384915      2.59292824     -5.41901524
H       5.58698984      2.72484910     -3.76453167
H       2.70776761      3.25578144     -4.73233593
H       3.90209427      4.49185340     -4.35646921
H       3.27201111      3.49807496     -3.06863394
