19

 C      2.14129389      0.03853886      0.60413274
 C      0.69405633     -0.23584724      0.25094318
 C      0.46269414     -1.67040624     -0.18526370
 N     -0.14823249     -0.01791786      1.50155555
 C      0.16385087      0.77268395     -0.78564600
 C     -1.28487799      0.73381537     -0.88620925
 C     -2.48478875      0.67839417     -0.87896951
 H      2.51379177     -0.66512572      1.35220632
 H      2.28714597      1.05801493      0.97135294
 H      2.75643366     -0.07956177     -0.28896288
 H      0.78574195     -2.37791305      0.58277398
 H      1.05116278     -1.87151844     -1.08107118
 H     -0.58626779     -1.85591492     -0.42631186
 H     -0.00216563     -0.76252566      2.18393449
 H     -1.13992876      0.00166230      1.21809468
 H      0.06764278      0.87485275      1.94889613
 H      0.62365816      0.53575450     -1.74909295
 H      0.49058940      1.78661931     -0.52847827
 H     -3.55095934      0.64961664     -0.92732439
