18
2360.log
C      2.151172    0.000186    0.516142
C      0.659645   -0.239079    0.326137
C      0.421178   -1.648108   -0.217088
N     -0.000240   -0.000221    1.605936
C      0.121985    0.811556   -0.665744
C     -1.311242    0.727032   -0.889619
C     -2.498502    0.647895   -1.055221
H      2.562920   -0.715676    1.233137
H      2.330902    1.005570    0.901956
H      2.694123   -0.122019   -0.424187
H      0.799445   -2.391599    0.489929
H      0.929452   -1.805066   -1.173091
H     -0.645774   -1.829028   -0.366511
H      0.309357   -0.682868    2.288249
H     -1.003188   -0.115526    1.502885
H      0.642634    0.702360   -1.622693
H      0.361604    1.804968   -0.273899
H     -3.549313    0.587899   -1.212655
