21

 C      2.04481912      0.02396273      1.76614552
 C      1.47585342     -0.27352214      0.39464583
 C      1.72028521     -1.69652327     -0.05575147
 N     -0.01120210      0.01351546      0.43377545
 C     -0.73999907      0.03951044     -0.88392098
 C     -2.16637466      0.41908671     -0.67975398
 C     -2.67541192      1.56390407     -1.11177237
 H      3.12539342     -0.11938157      1.74644404
 H      1.63841955     -0.65154286      2.52415871
 H      1.85927077      1.05593289      2.07500965
 H      1.87326368      0.43300916     -0.33904932
 H      1.27022423     -2.41521330      0.63562245
 H      2.79482801     -1.88214704     -0.06102409
 H      1.35525676     -1.89456994     -1.06386076
 H     -0.15785189      0.91942968      0.88469912
 H     -0.45747065     -0.67286523      1.04729508
 H     -0.63764291     -0.95444265     -1.31998134
 H     -0.21665331      0.75863826     -1.51511564
 H     -2.80155921     -0.30627548     -0.17630031
 H     -2.07460088      2.29452049     -1.64472931
 H     -3.72157445      1.80405710     -0.96635184
