20
2368.log
C      2.147406   -0.000418    0.504657
C      0.680962   -0.301278    0.237232
C     -0.226556    0.439912    1.212495
N     -0.001707    0.000053    2.583220
C      0.312175    0.022100   -1.214398
C     -1.029867   -0.476098   -1.637379
C     -1.998010    0.262052   -2.162861
H      2.389493   -0.171893    1.554110
H      2.371518    1.046569    0.274530
H      2.799673   -0.623414   -0.112891
H      0.516634   -1.378591    0.389539
H     -1.269703    0.331143    0.882398
H      0.008685    1.509780    1.159859
H     -0.344503   -0.945542    2.706813
H     -0.515371    0.582085    3.232283
H      1.073056   -0.432104   -1.861921
H      0.375019    1.104689   -1.376374
H     -1.201225   -1.544087   -1.502699
H     -1.875335    1.330179   -2.316038
H     -2.945078   -0.171675   -2.462847
