19

C       1.86234172      0.01348762      0.01562696
C       0.39877389     -0.28396035     -0.27641701
C      -0.54451128      0.43410100      0.67069396
N      -0.36892057     -0.05320580      2.08449433
C       0.03345003      0.10870111     -1.71782863
C      -1.34689707     -0.19177298     -2.05569472
C      -2.49121348     -0.44952862     -2.30877989
H       2.50418025     -0.49469951     -0.70524922
H       2.18746072     -0.33685283      1.00127224
H       2.07182992      1.08472578     -0.05338586
H       0.21597500     -1.36297350     -0.18471262
H      -1.58676008      0.25513575      0.40215597
H      -0.36028039      1.51036477      0.69016905
H      -0.56864069     -1.05396302      2.14931552
H      -0.99191703      0.43283252      2.73198977
H       0.59219439      0.08999259      2.40220355
H       0.23076510      1.17631602     -1.87138698
H       0.70269016     -0.42587330     -2.39819817
H      -3.49994185     -0.67372668     -2.57145823
