21

C       2.93535358      0.67005540      0.99164976
C       2.39074014      0.28431523     -0.37363255
C       3.17888531     -0.85784085     -0.99486815
N       2.45756850     -1.27172034     -2.28471359
C       4.59053807     -0.53738139     -1.34142058
C       5.61904549     -1.31466119     -1.00884631
C       7.04365795     -1.02329285     -1.29637802
H       2.34754897      1.48583664      1.41235850
H       3.97325171      1.00004138      0.92767422
H       2.88790029     -0.16943925      1.68886707
H       1.33799796     -0.00692395     -0.27711245
H       2.42376365      1.15005790     -1.04626161
H       3.13402287     -1.74717971     -0.36073866
H       2.44981169     -0.49274859     -2.94651198
H       1.48789500     -1.54153339     -2.10678098
H       2.94392892     -2.05127922     -2.73074246
H       4.76255302      0.40674659     -1.85758416
H       5.41765167     -2.23570086     -0.46133660
H       7.17156711     -0.09178353     -1.84797575
H       7.49247821     -1.83897455     -1.87070425
H       7.61103891     -0.95937947     -0.36314146
