23

 C      2.78336947      0.03332471      0.28999393
 C      1.48393714      0.38620746     -0.41891766
 C      0.27688363     -0.39619323      0.06509451
 N      0.04876365     -0.07334649      1.53089457
 C     -1.02670210     -0.17639157     -0.70390244
 C     -2.13108515     -1.10671813     -0.21232517
 C     -1.49222665      1.27505625     -0.72774373
 H      3.62263146      0.54497510     -0.18165071
 H      2.98863567     -1.03925227      0.24618337
 H      2.80148131      0.34484380      1.34062984
 H      1.28966931      1.46128422     -0.34647543
 H      1.57965295      0.17113790     -1.48653467
 H      0.51242971     -1.46504676      0.06230389
 H     -0.21089801      0.90940048      1.63896629
 H      0.89673269     -0.23960146      2.07470358
 H     -0.70663041     -0.64239894      1.91647722
 H     -0.77926790     -0.46867229     -1.73027441
 H     -2.52089102     -0.81476885      0.77064422
 H     -1.80082773     -2.14776986     -0.16164550
 H     -2.98539350     -1.07003954     -0.88913171
 H     -1.77635038      1.64452866      0.26528398
 H     -2.38914954      1.36238128     -1.34224231
 H     -0.74746585      1.95232658     -1.14737913
