21

C       2.60135762      0.02492925      0.17012846
C       1.30346488      0.40724382     -0.52672910
C       0.07645079     -0.28483345      0.03374401
N      -0.05752046      0.09926312      1.50608687
C      -1.25468822     -0.01564722     -0.62258372
C      -2.37204108     -0.93433293     -0.22767283
C      -1.40383612      0.95365368     -1.51860063
H       3.45217679      0.45362546     -0.35970892
H       2.74486638     -1.05841148      0.19199518
H       2.67191416      0.40466552      1.19579355
H       1.16519133      1.49355342     -0.50521017
H       1.35833931      0.12830381     -1.58139804
H       0.25118835     -1.36618168      0.06265284
H      -0.23796549      1.10276759      1.58375073
H       0.79904839     -0.11589304      2.02025113
H      -0.83596701     -0.39368999      1.94575405
H      -2.12094094     -1.97592818     -0.45112325
H      -3.28774148     -0.68625837     -0.76229614
H      -2.61579302     -0.88841770      0.84171222
H      -2.36259038      1.12301251     -1.99439252
H      -0.59129879      1.59766887     -1.83062772
