20
2372.log
C      2.733331   -0.000078    0.246945
C      1.416646    0.396185   -0.400062
C      0.205676   -0.294132    0.224821
N     -0.000005    0.000237    1.642557
C     -1.103482   -0.043821   -0.494207
C     -2.234081   -0.928579   -0.071456
C     -1.256880    0.893219   -1.424756
H      3.577541    0.476900   -0.255526
H      2.889147   -1.082042    0.197671
H      2.777082    0.296028    1.298472
H      1.450634    0.152340   -1.466888
H      1.287174    1.482643   -0.331744
H      0.384383   -1.378560    0.169511
H     -0.111251    0.999901    1.772666
H      0.798957   -0.290779    2.190968
H     -2.011626   -1.974728   -0.309458
H     -3.164855   -0.655297   -0.570075
H     -2.374334   -0.875125    1.010339
H     -0.446126    1.535814   -1.745071
H     -2.216834    1.045587   -1.906326
