21

C       1.98083175     -0.00820246     -0.10398738
C       0.87353976     -1.03579412      0.07439083
C      -0.41376538     -0.51808283      0.69608936
N      -0.11169623     -0.01944529      2.09902943
C      -1.11732700      0.60478920     -0.05752479
C      -1.57803915      0.15813860     -1.40983000
C      -1.22126046      0.73939375     -2.54470458
H       2.85172355     -0.48328918     -0.55632540
H       2.33393471      0.42231048      0.84021144
H       1.68269620      0.80935229     -0.76173421
H       1.23506434     -1.88833742      0.66053491
H       0.59394204     -1.44391741     -0.89983801
H      -1.10719800     -1.35057442      0.84364652
H       0.56253513      0.74821755      2.05838616
H       0.29307043     -0.75785410      2.67752779
H      -0.95451410      0.32655754      2.56096360
H      -0.45572236      1.47098327     -0.15847675
H      -1.98915886      0.92951558      0.52782059
H      -2.26628648     -0.68433526     -1.42928292
H      -0.55182563      1.59382359     -2.56683199
H      -1.60091326      0.39170364     -3.49764159
