18
2375.log
C      2.580912    0.000078    0.392798
C      1.210006    0.471259   -0.059725
C      0.053360   -0.219640    0.660847
N      0.000059    0.000072    2.099269
C     -1.303334    0.202038    0.082609
C     -1.481421   -0.129648   -1.319589
C     -1.624900   -0.418312   -2.476519
H      3.374163    0.500900   -0.166185
H      2.698175   -1.076598    0.238091
H      2.754103    0.206211    1.452657
H      1.101093    0.303940   -1.135966
H      1.116900    1.554466    0.095539
H      0.151055   -1.301411    0.509853
H      0.000280    0.994243    2.303491
H      0.816172   -0.391527    2.551456
H     -1.427951    1.284433    0.215516
H     -2.087465   -0.276512    0.676077
H     -1.758106   -0.672378   -3.501213
