23

C       1.72900541      0.00791865     -1.90070796
C       0.66456431      1.06249164     -1.63987228
C       0.39611311      1.31838694     -0.16996522
N       0.00195005      0.08359288      0.59384123
C       0.14749585      0.29660067      2.05623935
C      -1.37051438     -0.40313707      0.22392197
C      -1.64938876     -1.80791910      0.70296663
H       1.96327802     -0.04031663     -2.96427191
H       1.40940406     -1.00242890     -1.62018651
H       2.65934551      0.23284761     -1.37220217
H       0.99133238      2.02238323     -2.04933338
H      -0.25857476      0.82144011     -2.17315049
H      -0.40371719      2.04508904     -0.01532017
H       1.29762479      1.69562027      0.31691196
H       0.66060668     -0.64911600      0.31982011
H      -0.51700046      1.10616175      2.35502197
H       1.17916373      0.56629458      2.27453513
H      -0.11323331     -0.61473937      2.58815188
H      -1.43344554     -0.34929179     -0.86209953
H      -2.07150520      0.32294513      0.64027423
H      -0.90789723     -2.51843299      0.32795767
H      -2.61853692     -2.11955282      0.31096288
H      -1.70116256     -1.88915452      1.78862031
