22
2378.log
C      1.816168    0.001073   -1.869495
C      0.657728    0.955332   -1.635860
C      0.364950    1.196003   -0.161460
N     -0.000588   -0.000427    0.578000
C      0.184761    0.192576    1.997433
C     -1.347892   -0.440977    0.265072
C     -1.658416   -1.846459    0.744780
H      1.997158   -0.150902   -2.936089
H      1.617731   -0.969757   -1.412235
H      2.738338    0.389778   -1.427288
H     -0.237084    0.586636   -2.147467
H      0.875627    1.927763   -2.090402
H     -0.410968    1.979167   -0.059862
H      1.270902    1.600440    0.302228
H      1.216872    0.487222    2.197949
H     -0.004027   -0.734558    2.540099
H     -0.480801    0.971938    2.414707
H     -1.465519   -0.414591   -0.820412
H     -2.095191    0.266971    0.675454
H     -0.916242   -2.552458    0.365638
H     -2.642534   -2.155108    0.384456
H     -1.674398   -1.921858    1.833597
