21

C       3.09394682      0.02710961     -1.31844575
C       2.07329566      0.28130400     -0.21970089
C       0.71373828     -0.26342559     -0.60122611
N      -0.29554761     -0.02059755      0.47833902
C      -1.68522199     -0.52719465      0.18843444
C      -2.59863206     -0.23889188      1.32867459
C      -3.60138229      0.62381325      1.24595262
H       4.06626991      0.42617425     -1.03041760
H       2.80132893      0.50898245     -2.25372801
H       3.21661276     -1.04114110     -1.50925695
H       2.40945222     -0.18813125      0.71204309
H       1.99778774      1.35757297     -0.02741767
H       0.32471282      0.21091867     -1.50428708
H       0.74015824     -1.34214586     -0.76701470
H       0.03791249     -0.44474550      1.34690521
H      -0.35402470      0.98202351      0.67142399
H      -2.01159034     -0.03513196     -0.72838838
H      -1.58230590     -1.59733141     -0.00498581
H      -2.43015172     -0.79561810      2.24772968
H      -3.81410074      1.17131878      0.33292455
H      -4.26213952      0.79950137      2.08603477
