19

C       2.25689744     -0.03163113     -1.91512135
C       1.58155568      0.25961465     -0.58378589
C       0.13642981     -0.19021105     -0.59790079
N      -0.53362293      0.09455664      0.71180979
C      -1.97773043     -0.32002679      0.79088801
C      -2.51748908      0.00121518      2.09097888
C      -2.94763839      0.27513430      3.17484970
H       3.29564088      0.29710312     -1.89055852
H       1.76284621      0.49186200     -2.73634357
H       2.25262340     -1.10033895     -2.13958278
H       1.63052072      1.33359959     -0.37159615
H       2.11836980     -0.25233331      0.22281536
H       0.04700762     -1.26501267     -0.76753374
H      -0.44299432      0.32791893     -1.36456838
H      -0.47280659      1.09472633      0.91790110
H      -0.02240324     -0.36947544      1.46668749
H      -2.01545402     -1.39245921      0.58638234
H      -2.50568681      0.20122282     -0.01093356
H      -3.34530903      0.51339399      4.13692246
