19

 C      2.73912043     -0.04593467     -2.34905725
 C      2.06377867      0.24531111     -1.01772179
 C      0.61865280     -0.20451459     -1.03183670
 N     -0.05139994      0.08025310      0.27787388
 C     -1.49550745     -0.33433033      0.35695210
 C     -2.03526610     -0.01308836      1.65704297
 C     -2.46541541      0.26083076      2.74091379
 H      3.77786387      0.28279957     -2.32449442
 H      2.24506920      0.47755846     -3.17027947
 H      2.73484639     -1.11464249     -2.57351869
 H      2.11274371      1.31929604     -0.80553205
 H      2.60059279     -0.26663686     -0.21112055
 H      0.52923060     -1.27931621     -1.20146965
 H      0.03922867      0.31361539     -1.79850429
 H      0.00941640      1.08042279      0.48396520
 H      0.45981974     -0.38377899      1.03275158
 H     -1.53323104     -1.40676275      0.15244643
 H     -2.02346382      0.18691928     -0.44486947
 H     -2.86308605      0.49909044      3.70298655
