14

 C      0.95310877     -0.13830948      0.12351270
 C      2.14734369     -0.04477626      0.13000905
 C      3.58541344      0.05111724      0.12574677
 N      4.16861444     -1.22105086     -0.45671567
 C      5.66533752     -1.26120325     -0.51318177
 C      6.15656667     -0.20445460     -1.37761791
 N      6.50698845      0.64262921     -2.06852417
 H     -0.11326114     -0.20620450      0.12449674
 H      3.94696091      0.87673485     -0.49242591
 H      3.99789418      0.15723966      1.13234551
 H      3.82864073     -2.01241590      0.09685015
 H      3.78083580     -1.34496162     -1.39712886
 H      6.04841019     -1.14216267      0.50273985
 H      5.96867163     -2.24012814     -0.89135630
