18

C       3.44686036      1.57800072     -0.53916121
C       3.01185568      0.23137784      0.01587709
C       3.53628173      0.00330646      1.43063683
N       3.03500390     -1.31707458      1.97239572
C       3.37891366     -1.59848478      3.39704729
C       4.99176340     -0.01774981      1.50087247
N       6.13779290     -0.07465567      1.54642222
H       3.03758125      1.71039354     -1.54034050
H       4.53364502      1.64842386     -0.61104202
H       3.08554927      2.40154876      0.08032307
H       3.36675272     -0.57705718     -0.63197475
H       1.91787428      0.17695622      0.04928910
H       3.15756379      0.77252670      2.11109101
H       3.40187209     -2.06540911      1.37782294
H       2.01943690     -1.33128072      1.85239554
H       4.46255438     -1.60300295      3.49738276
H       2.96938231     -2.57024785      3.66685723
H       2.94286921     -0.81953431      4.01954808
