16

 C      0.89630907      0.02870246     -0.08377994
 C      2.41274807     -0.05360451     -0.05361848
 C      3.01387212      0.17087435     -1.36158161
 N      3.49197371      0.37671713     -2.38518789
 N      2.96785228      0.94961587      0.90889456
 C      4.36701999      1.43672325      0.87769302
 C      3.26850377      2.35345547      0.53865732
 H      0.51351405     -0.73204139     -0.76439933
 H      0.55817911      1.00396058     -0.43585821
 H      0.48270555     -0.16855783      0.90725183
 H      2.74221102     -1.03114542      0.31335306
 H      2.57642714      0.83039529      1.83871371
 H      4.84089307      1.49256769      1.84934906
 H      4.95770215      1.01867042      0.07135689
 H      3.08904019      2.57655746     -0.50631112
 H      2.93177351      3.08811486      1.25867717
