16

C       1.11878577     -0.05332697     -0.49230885
C       2.63522477     -0.13563394     -0.46214739
C       3.23634882      0.08884492     -1.77011052
N       3.71445041      0.29468770     -2.79371680
N       3.19032898      0.86758644      0.50036565
C       4.58949669      1.35469383      0.46916411
C       3.49098047      2.27142604      0.13012840
H       0.73599075     -0.81407082     -1.17292824
H       0.78065581      0.92193115     -0.84438712
H       0.70518225     -0.25058726      0.49872292
H       2.96468772     -1.11317485     -0.09517585
H       2.79890384      0.74836587      1.43018480
H       5.06336977      1.41053827      1.44082014
H       5.18017885      0.93664100     -0.33717202
H       3.31151689      2.49452803     -0.91484004
H       3.15425021      3.00608544      0.85014825
