18

C      -2.05601267      0.17545025      0.06573527
C      -0.65921078      0.64915568      0.42705294
C      -0.29564831      0.33065310      1.80246416
N      -0.00631510      0.06026705      2.88024830
N       0.40574906      0.07346367     -0.49207231
C       1.72469797      0.73914905     -0.28839418
C       0.53297083     -1.40978476     -0.40351039
H      -2.27691669      0.38464957     -0.98352319
H      -2.77249804      0.73097496      0.67174012
H      -2.20141731     -0.88403965      0.27229224
H      -0.59005586      1.73333127      0.29586029
H       0.09000866      0.29677571     -1.43818149
H       2.07224575      0.51676448      0.71944543
H       1.60703007      1.81392022     -0.41784070
H       2.42824505      0.34873843     -1.02115525
H       0.83141897     -1.67103474      0.61069198
H       1.29515681     -1.72876394     -1.11179870
H      -0.41826869     -1.87365807     -0.65159653
