17
2419.log
C     -1.985923    0.103787   -0.453409
C     -0.568982    0.545718   -0.109853
C     -0.273917    0.256442    1.313738
N     -0.000997   -0.001745    2.401169
N      0.435163   -0.000824   -1.001120
C      1.718777    0.650524   -0.843080
C      0.563560   -1.442675   -0.942878
H     -2.706734    0.659363    0.147910
H     -2.139197   -0.957687   -0.259043
H     -2.171354    0.303253   -1.509509
H     -0.519127    1.635018   -0.213987
H      1.604064    1.730705   -0.960119
H      2.398050    0.296848   -1.620867
H      2.187188    0.455737    0.135584
H     -0.390062   -1.923186   -1.162668
H      0.921250   -1.805012    0.034683
H      1.276706   -1.761347   -1.705011
