18

 C     -2.02151981      0.10300353     -0.45240142
 C     -0.62471792      0.57670896     -0.09108374
 C     -0.26115545      0.25820638      1.28432748
 N      0.02817775     -0.01217967      2.36211162
 N      0.44024192      0.00101695     -1.01020899
 C      1.75919083      0.66670233     -0.80653086
 C      0.56746369     -1.48223148     -0.92164707
 H     -2.24242383      0.31220285     -1.50165988
 H     -2.73800518      0.65852824      0.15360343
 H     -2.16692445     -0.95648637     -0.24584445
 H     -0.55556300      1.66088455     -0.22227639
 H      0.12450152      0.22432899     -1.95631817
 H      2.10673861      0.44431776      0.20130875
 H      1.64152293      1.74147350     -0.93597738
 H      2.46273791      0.27629171     -1.53929193
 H      0.86591183     -1.74348146      0.09255530
 H      1.32964967     -1.80121066     -1.62993538
 H     -0.38377583     -1.94610479     -1.16973322
