21

 C      2.48019793     -0.00527019      0.52474222
 C      1.26260901      0.84087570      0.81063759
 N      0.02686930      0.02894009      0.77753244
 C     -1.31873063      0.63062161      0.67216739
 C     -0.84689144     -0.23055707     -0.43188275
 C     -0.42003832      0.38166498     -1.73209935
 C     -1.34991287     -1.64359211     -0.50639255
 H      3.37189115      0.61969965      0.58643524
 H      2.44606154     -0.44214931     -0.47444323
 H      2.59472257     -0.80833267      1.25677854
 H      1.14689769      1.64631259      0.08700787
 H      1.30670891      1.29229442      1.80445363
 H      0.07200176     -0.77108931      1.40138029
 H     -2.04453347      0.25653631      1.38392433
 H     -1.29683136      1.70621089      0.54467130
 H      0.35918034     -0.21250346     -2.21195333
 H     -0.08159821      1.41233152     -1.63552664
 H     -1.28621884      0.38788889     -2.39700984
 H     -0.61240858     -2.29731036     -0.97550660
 H     -2.25471757     -1.66613929     -1.11666120
 H     -1.60799087     -2.04468388      0.47663483
