17

C       2.42704815      1.08279957     -0.53474353
C       2.55522786     -0.40172873     -0.29698850
N       3.02211485     -1.10193553     -1.51622525
C       2.79030415     -2.53961582     -1.73256025
C       2.06518669     -1.55936914     -2.57566067
C       2.44040984     -1.32164268     -3.93082988
C       2.74246030     -1.13021807     -5.07450482
H       2.08848794      1.56046331      0.38545214
H       1.69929472      1.30793553     -1.31644275
H       3.38511032      1.53290839     -0.80370931
H       3.27816809     -0.63367020      0.48828217
H       1.60226578     -0.85891192     -0.02295662
H       3.89634071     -0.74733978     -1.89626442
H       3.62479337     -3.07808259     -2.16233541
H       2.26083177     -3.02553002     -0.92302757
H       1.03614930     -1.34364239     -2.30443218
H       3.00871099     -0.96168306     -6.09511202
