21

C       1.33137749      0.03419208      0.16610066
C       2.82979045     -0.07998130      0.02162888
N       3.22740641     -0.83719654     -1.19214390
C       4.69961844     -1.09105458     -1.42474031
C       4.39383312     -2.52569231     -1.85507010
C       2.98005761     -2.35068373     -1.27883150
C       1.79481841     -2.76631770     -2.09954903
H       1.10662725      0.63706775      1.04663410
H       0.85715201     -0.93835208      0.30613034
H       0.87582196      0.53013055     -0.69432096
H       3.30106713      0.90262537     -0.06091150
H       3.28164081     -0.59749911      0.87009761
H       2.81374597     -0.38923666     -2.01071894
H       5.13942485     -0.40424847     -2.14477856
H       5.21793364     -1.01170632     -0.47034801
H       5.00521030     -3.30428222     -1.40609128
H       4.38675078     -2.65458964     -2.93760534
H       2.91041969     -2.70457522     -0.24822870
H       1.84929684     -2.36453336     -3.11511214
H       0.84876665     -2.46600931     -1.64669088
H       1.79222717     -3.85555118     -2.18025047
