21

C       2.58888693      1.50189049      0.25193770
C       2.27116053      0.11972636     -0.26900334
N       2.88211792     -0.09269582     -1.59856866
C       2.44427623     -1.13738867     -2.58121371
C       1.36732881     -2.10240685     -2.20615426
C       2.21140353      0.29134809     -2.87286141
C       3.00332351      1.05949427     -3.87984746
H       2.13678536      1.62529656      1.23673531
H       2.18878572      2.28125832     -0.39928754
H       3.66474376      1.65447217      0.36468681
H       2.65885619     -0.66116588      0.38843047
H       1.19814716     -0.03229648     -0.37494540
H       3.88354489      0.07644880     -1.60176173
H       3.30865568     -1.57710713     -3.07063933
H       0.48579173     -1.61622807     -1.78985620
H       1.73237656     -2.85248119     -1.50268070
H       1.05657411     -2.62631422     -3.11237531
H       1.20410466      0.64765154     -2.67668355
H       4.01313052      0.65830447     -3.99305344
H       3.06689548      2.11577829     -3.61359744
H       2.50865072      0.98803595     -4.85039581
