19

 C      2.24480654      0.01698109      1.50663894
 C      1.05512949      0.82789172      1.05481497
 N     -0.01083567     -0.02588468      0.44344146
 C     -1.29687176      0.70286538      0.14195707
 C     -1.83640879     -0.05303869     -1.02653596
 C     -0.91756600     -0.84566706     -1.55564863
 C      0.38050420     -0.74655678     -0.82397085
 H      2.96248503      0.68311886      1.98676012
 H      2.75584835     -0.47000030      0.67499138
 H      1.96332776     -0.74077570      2.24247878
 H      0.58762261      1.34947970      1.89224988
 H      1.32390086      1.56977919      0.30110366
 H     -0.24475455     -0.75278667      1.12115817
 H     -1.92761408      0.69725675      1.03220796
 H     -1.05665561      1.74185800     -0.10271234
 H     -2.84635810      0.08834870     -1.38602856
 H     -1.03675180     -1.47303071     -2.42823627
 H      1.11829305     -0.13797060     -1.35539789
 H      0.84083545     -1.70204413     -0.57086903
