21

C       1.28078757     -0.02824891      2.91292642
C       1.26981189      0.34104810      1.45051653
N      -0.05051811      0.00569882      0.81643301
C      -0.14054831      0.31679170     -0.62352757
C       0.36027556     -0.69710813     -1.59483575
C      -1.11308667     -0.43444207     -1.47188125
C      -1.87606227      0.27858924     -2.55162198
H       2.25061529      0.23283885      3.33786870
H       1.13646847     -1.10064907      3.06482633
H       0.52033100      0.51557580      3.47837180
H       1.41997030      1.40991640      1.29339437
H       2.02474356     -0.19734264      0.87699725
H      -0.23551828     -0.99065685      0.95308355
H      -0.79460368      0.49580282      1.31961111
H       0.02874618      1.37153310     -0.80295171
H       0.74575971     -1.63582367     -1.21093680
H       0.88707319     -0.32540547     -2.46477529
H      -1.66929699     -1.21669747     -0.95939990
H      -1.26508026      1.05157850     -3.02276305
H      -2.77783202      0.74963949     -2.15603777
H      -2.17640215     -0.42607555     -3.32869501
