20
2447.log
C      1.280291   -0.000064    2.996050
C      1.266791    0.354825    1.524137
N     -0.000653   -0.000028    0.913951
C     -0.092042    0.335762   -0.470266
C      0.393864   -0.678047   -1.464146
C     -1.074323   -0.405381   -1.319363
C     -1.832050    0.298454   -2.408162
H      2.244439    0.243482    3.447278
H      1.089235   -1.065935    3.136848
H      0.511130    0.554669    3.542266
H      2.052772   -0.198298    0.999499
H      1.506571    1.425613    1.398501
H     -0.761858    0.428712    1.428235
H      0.078140    1.381830   -0.743303
H      0.776589   -1.607307   -1.060868
H      0.892504   -0.320602   -2.357684
H     -1.626010   -1.171946   -0.784476
H     -1.214936    1.066312   -2.882199
H     -2.730178    0.787328   -2.019637
H     -2.143535   -0.400550   -3.189312
