21

C       2.06602377      0.03890737      0.73087760
C       0.75901432     -0.71844119      0.81578478
N      -0.03183083     -0.17393697      1.98666976
C      -0.06399105     -0.64394012     -0.44265075
C      -1.55618826     -0.78453876     -0.49536621
C      -0.91306611      0.52994927     -0.83141035
C      -0.89756968      1.04838864     -2.24141679
H       2.65690196     -0.04979538      1.64607819
H       1.89857970      1.09617624      0.51024024
H       2.66252634     -0.37487630     -0.08262467
H       0.94033068     -1.76544041      1.07702894
H      -0.24771047      0.81475619      1.84007672
H       0.49854630     -0.25483849      2.85518389
H      -0.91484921     -0.67622495      2.09692129
H       0.46908956     -1.11401536     -1.26348923
H      -1.96984630     -1.37628646     -1.30254562
H      -2.14360482     -0.85449543      0.41593342
H      -1.05127946      1.31024265     -0.08261341
H      -0.78271441      0.22832184     -2.95390954
H      -0.07492453      1.74885110     -2.39973097
H      -1.83048354      1.56458953     -2.47498128
