21

 C      2.13201318      0.12005919      0.77071531
 C      0.82500373     -0.63728937      0.85562249
 N      0.03415857     -0.09278515      2.02650747
 C      0.00199836     -0.56278830     -0.40281304
 C     -1.49019885     -0.70338694     -0.45552850
 C     -0.84707670      0.61110109     -0.79157264
 C     -0.83158027      1.12954046     -2.20157908
 H      2.72289137      0.03135645      1.68591590
 H      1.96456910      1.17732806      0.55007795
 H      2.72851575     -0.29372447     -0.04278696
 H      1.00632009     -1.68428859      1.11686665
 H     -0.18172107      0.89590801      1.87991443
 H      0.56453570     -0.17368667      2.89502160
 H     -0.84885980     -0.59507313      2.13675900
 H      0.53507897     -1.03286354     -1.22365152
 H     -1.90385689     -1.29513464     -1.26270791
 H     -2.07761541     -0.77334361      0.45577113
 H     -0.98529006      1.39139447     -0.04277570
 H     -0.71672500      0.30947366     -2.91407183
 H     -0.00893512      1.83000292     -2.35989326
 H     -1.76449413      1.64574135     -2.43514357
