21

 C      2.44851083      2.51683228      4.13084969
 C      3.60308805      2.55691111      3.16017659
 N      4.10385586      1.17789437      2.85223163
 C      5.27003106      1.12496242      1.91642798
 C      6.61276898      1.65024852      2.42759358
 C      7.26843740      0.48891686      1.64858030
 C      5.90831184     -0.24234854      1.66069522
 H      2.11273465      3.53572484      4.32742588
 H      2.73619327      2.07729209      5.08887283
 H      1.59635206      1.96357571      3.72901537
 H      3.32196358      3.00163022      2.20448550
 H      4.45532405      3.11011301      3.55628094
 H      4.36873183      0.71764228      3.72622892
 H      3.33692633      0.62210472      2.46609031
 H      4.94844678      1.61708002      0.99711592
 H      6.88953837      2.67359856      2.17947885
 H      6.71721814      1.50232328      3.50695658
 H      7.55617252      0.78987473      0.64135105
 H      8.10799311     -0.01505808      2.12136246
 H      5.82560526     -0.89597978      2.53433423
 H      5.59465519     -0.79143546      0.77423784
