21

C       2.14188477      0.01556123      0.68911222
C       0.76720467     -0.61289944      0.65067509
N      -0.03959784     -0.06208422      1.81193758
C       0.01376375     -0.36653137     -0.63902516
C      -1.44908064     -0.81901048     -0.82843100
C      -1.64647208      0.41806418     -1.72607738
C      -0.40460020      1.05582295     -1.07274094
H       2.75269576     -0.41586133     -0.10433652
H       2.65753952     -0.16985614      1.63451851
H       2.09208919      1.09405746      0.51722610
H       0.82581041     -1.68776535      0.84560379
H      -0.13608142      0.95171343      1.72085284
H       0.41099871     -0.25869338      2.70646119
H      -0.97911403     -0.46391437      1.82307470
H       0.62304495     -0.81212453     -1.43008325
H      -1.62305372     -1.80783317     -1.25135357
H      -2.05627604     -0.73143642      0.08167669
H      -1.46151521      0.17813188     -2.77353189
H      -2.59038802      0.95417450     -1.65065605
H      -0.69902979      1.69562675     -0.23155614
H       0.28290226      1.62164582     -1.70004080
