21

 C      2.20538085      0.05794311      0.80420530
 C      0.83070075     -0.57051756      0.76576817
 N      0.02389824     -0.01970234      1.92703066
 C      0.07725983     -0.32414949     -0.52393208
 C     -1.38558456     -0.77662860     -0.71333792
 C     -1.58297600      0.46044606     -1.61098430
 C     -0.34110412      1.09820483     -0.95764786
 H      2.81619184     -0.37347945      0.01075656
 H      2.72103560     -0.12747426      1.74961159
 H      2.15558527      1.13643934      0.63231918
 H      0.88930649     -1.64538347      0.96069688
 H     -0.07258534      0.99409531      1.83594592
 H      0.47449479     -0.21631150      2.82155427
 H     -0.91561795     -0.42153249      1.93816778
 H      0.68654103     -0.76974265     -1.31499016
 H     -1.55955764     -1.76545129     -1.13626048
 H     -1.99277996     -0.68905454      0.19676977
 H     -1.39801913      0.22051376     -2.65843881
 H     -2.52689194      0.99655638     -1.53556297
 H     -0.63553371      1.73800863     -0.11646306
 H      0.34639834      1.66402770     -1.58494772
