20
2453.log
C      1.988040    0.000047    0.451287
C      0.559648   -0.473275    0.694530
N     -0.000189   -0.000313    1.958663
C     -0.433021   -0.133717   -0.408437
C     -1.727981   -0.899819   -0.303285
C     -0.521861    1.285465   -0.893831
C      0.032765    0.215231   -1.788707
H      2.607892   -0.252865    1.315254
H      2.039441    1.085129    0.319510
H      2.438003   -0.474416   -0.423801
H      0.586040   -1.569157    0.761820
H     -0.071110    1.011410    1.940776
H      0.610578   -0.241436    2.729892
H     -2.179413   -0.756079    0.679959
H     -1.556623   -1.971886   -0.444155
H     -2.439514   -0.572923   -1.065317
H      0.176450    2.018904   -0.506919
H     -1.506361    1.682485   -1.110755
H      1.093194    0.244809   -2.002429
H     -0.577882   -0.123057   -2.617663
