21

 C      1.98565908     -0.02768452      0.48348153
 C      0.56188424     -0.50330098      0.65400451
 N      0.02967947      0.07317477      1.96467037
 C     -0.44756845     -0.14629085     -0.41168287
 C     -1.73272108     -0.93563447     -0.32948081
 C     -0.53038080      1.29028941     -0.87285905
 C      0.03084854      0.24306565     -1.77791370
 H      2.43940282     -0.53899390     -0.36420203
 H      2.59114473     -0.27008559      1.36035226
 H      2.04957303      1.04834510      0.30554647
 H      0.55218073     -1.58555361      0.81486389
 H     -0.00999186      1.09241846      1.89235996
 H      0.61670551     -0.17440199      2.76240306
 H     -0.91947175     -0.25982836      2.14267248
 H     -2.41721425     -0.63394231     -1.12265531
 H     -2.27865488     -0.78486439      0.61071484
 H     -1.54757904     -2.00726011     -0.44174486
 H     -1.51637435      1.68550461     -1.08240915
 H      0.16562382      2.02438270     -0.48029407
 H      1.09256785      0.27364151     -1.98155996
 H     -0.57146861     -0.09103742     -2.61288538
