21

 C      1.28291442     -2.70881001     -0.29550367
 C      2.76767708     -2.96469385     -0.38242272
 N      3.54175616     -1.79129338      0.14504568
 C      5.02412855     -1.86194724      0.01080410
 C      5.63730887     -2.97271373      0.80838806
 C      5.55813782     -1.44542721     -1.31825071
 C      5.69886108     -0.53682856     -0.13104076
 H      0.74838671     -3.57660247     -0.68317254
 H      0.98128506     -1.84582135     -0.89445437
 H      0.95330479     -2.55668998      0.73511814
 H      3.10506444     -3.11395059     -1.40855598
 H      3.06680106     -3.82992598      0.20767279
 H      3.30658884     -1.65607455      1.13221337
 H      3.21186121     -0.95055187     -0.33378342
 H      6.72248147     -2.90238798      0.73733185
 H      5.35189315     -3.95969852      0.43976487
 H      5.37765503     -2.90000244      1.86885528
 H      6.43068724     -1.97185817     -1.68262521
 H      4.86474276     -1.14917467     -2.09787568
 H      5.09919868      0.36708650     -0.11457755
 H      6.66893395     -0.42874849      0.33619213
