21

C       0.87950706      0.04335109      3.01518801
C       0.70419044     -0.75501843      1.74671999
N      -0.07501770      0.01282902      0.72468655
C      -0.32265825     -0.70285769     -0.57599749
C      -1.02935534      0.19128491     -1.53672577
C      -0.24863146      1.25100330     -2.27289907
C      -0.74498395      0.04881491     -3.00156432
H       1.45178402     -0.54678624      3.73174157
H      -0.07897350      0.28317925      3.48161352
H       1.43054200      0.97047175      2.84074660
H       1.65968514     -1.00398563      1.28271504
H       0.15763036     -1.68341542      1.91864075
H      -0.97464857      0.28642399      1.12566843
H       0.40464877      0.89105462      0.51174078
H       0.65682182     -1.00408280     -0.95203721
H      -0.89213825     -1.60192549     -0.33256821
H      -2.05524793      0.43072559     -1.27294171
H      -0.73374886      2.20163028     -2.45095046
H       0.82021668      1.31984955     -2.09822597
H      -0.01978965     -0.69499206     -3.30789418
H      -1.58020885      0.16446950     -3.67889084
