21

 C      0.97095809      0.03543693      3.23426145
 C      0.79564147     -0.76293259      1.96579343
 N      0.01643333      0.00491486      0.94375999
 C     -0.23120722     -0.71077185     -0.35692405
 C     -0.93790431      0.18337075     -1.31765233
 C     -0.15718043      1.24308914     -2.05382563
 C     -0.65353292      0.04090075     -2.78249088
 H      1.54323505     -0.55470040      3.95081501
 H      0.01247753      0.27526509      3.70068696
 H      1.52199303      0.96255759      3.05982004
 H      1.75113617     -1.01189979      1.50178848
 H      0.24908139     -1.69132958      2.13771419
 H     -0.88319754      0.27850983      1.34474187
 H      0.49609980      0.88314046      0.73081422
 H      0.74827285     -1.01199696     -0.73296377
 H     -0.80068722     -1.60983965     -0.11349477
 H     -1.96379690      0.42281143     -1.05386827
 H     -0.64229783      2.19371612     -2.23187702
 H      0.91166771      1.31193539     -1.87915253
 H      0.07166138     -0.70290622     -3.08882074
 H     -1.48875782      0.15655534     -3.45981740
