21

 C      1.77427503      0.02889851      0.90734742
 C      0.36998378     -0.43134790      1.21758741
 N      0.03336763     -0.00396988      2.63919098
 C     -0.71332637      0.11124050      0.29814191
 C     -0.59133299     -0.41541765     -1.10635729
 C     -1.28372302      0.30504155     -2.22172948
 C      0.20791893      0.32257388     -2.14253192
 H      2.03813833     -0.30055945     -0.09681608
 H      2.50817849     -0.39279624      1.59857207
 H      1.85186063      1.11987864      0.92647743
 H      0.32203461     -1.52362773      1.24369151
 H      0.05190498      1.01565258      2.71552908
 H      0.70565126     -0.37764677      3.31173379
 H     -0.90078235     -0.31836740      2.90907011
 H     -1.69813471     -0.16381562      0.70011233
 H     -0.66663902      1.20754403      0.28224374
 H     -0.58838422     -1.49946894     -1.17718320
 H     -1.81304812      1.21940707     -1.98135280
 H     -1.75261169     -0.29137492     -2.99298993
 H      0.68258769      1.25362876     -1.85489845
 H      0.76797299     -0.25897817     -2.86364831
