21

C       2.69187900      1.07812074      1.20179814
C       2.44510907      0.83831408     -0.26618699
N       3.25282708     -0.29994255     -0.83578027
C       2.80626776     -0.62067365     -2.21948989
C       4.70869422     -0.05002525     -0.79343414
C       5.50769079     -0.48681657      0.38550684
C       5.63983156     -1.20658385     -0.92066430
H       2.01626626      1.86715919      1.53547371
H       3.71037846      1.40461726      1.40635572
H       2.47303990      0.19172312      1.80263046
H       1.40041881      0.58553573     -0.45450875
H       2.69385817      1.71153429     -0.87187752
H       3.06937354     -1.11849522     -0.25121326
H       2.97927068      0.25266616     -2.84615322
H       1.74525916     -0.86370418     -2.20585119
H       3.38500909     -1.46235834     -2.59251660
H       4.94734160      0.88305331     -1.28970046
H       6.30419908      0.16808088      0.71397952
H       5.00095222     -1.00684011      1.19019879
H       6.52971822     -1.06360056     -1.51916511
H       5.21951732     -2.20453748     -0.98103647
