19

 C      1.69038907      0.03121857     -0.15985360
 C      0.19251449      0.00551004      0.09175817
 N      0.00248169     -0.03560024      1.60511489
 C     -0.46503933      1.25239136     -0.43197788
 C     -1.16051511      2.15041974      0.24876470
 C     -0.52153102     -1.21136090     -0.44228036
 C      0.04030520     -2.18726256     -1.13877094
 H      2.18327535     -0.86838492      0.21611353
 H      2.14623858      0.91087245      0.29987867
 H      1.87636123      0.09413799     -1.23166937
 H      0.44786552     -0.87161063      1.98691109
 H     -0.99079163     -0.06634775      1.84440879
 H      0.41260025      0.79055073      2.04681262
 H     -0.33123922      1.37384540     -1.50282333
 H     -1.35051551      2.10609653      1.31779164
 H     -1.58926391      3.00818347     -0.25399773
 H     -1.59529207     -1.22426124     -0.26226649
 H      1.09621784     -2.20563881     -1.38232691
 H     -0.55743000     -3.01042443     -1.51106095
