19

C       1.57841219      0.02974985     -0.26287120
C       0.08053761      0.00404132     -0.01125943
N      -0.10949519     -0.03706896      1.50209729
C      -0.57701621      1.25092264     -0.53499548
C      -1.27249199      2.14895102      0.14574710
C      -0.63350790     -1.21282962     -0.54529796
C      -0.07167168     -2.18873128     -1.24178854
H       2.07129847     -0.86985364      0.11309593
H       2.03426170      0.90940373      0.19686107
H       1.76438435      0.09266927     -1.33468697
H       0.33588864     -0.87307935      1.88389349
H      -1.10276851     -0.06781647      1.74139119
H       0.30062337      0.78908201      1.94379502
H      -0.44321610      1.37237668     -1.60584093
H      -1.46249239      2.10462781      1.21477404
H      -1.70124079      3.00671475     -0.35701533
H      -1.70726895     -1.22572996     -0.36528409
H       0.98424096     -2.20710753     -1.48534451
H      -0.66940688     -3.01189315     -1.61407855
