15

C       1.24396685      0.17593497      0.27282832
C       2.76851617      0.23866747      0.35133627
N       3.32814806     -0.54727401     -0.85557428
C       3.27459145      1.59761456      0.21379989
C       3.67682819      2.71880102      0.08821535
C       3.28676780     -0.42756002      1.53845358
C       3.69727440     -0.98927484      2.51334739
H       0.88361449      0.64249557     -0.64614778
H       0.83454229      0.72766866      1.11778252
H       0.89645401     -0.85683240      0.33908389
H       3.01325451     -0.12335544     -1.73149115
H       3.01841119     -1.52129594     -0.81889145
H       4.35068884     -0.52958795     -0.83450938
H       4.03523105      3.72028774     -0.00989697
H       4.06233927     -1.47843510      3.38994593
