15

 C      1.02923358      0.00385252      0.01246524
 C      2.55378290      0.06658502      0.09097320
 N      3.11341479     -0.71935646     -1.11593735
 C      3.05985818      1.42553211     -0.04656319
 C      3.46209492      2.54671857     -0.17214773
 C      3.07203452     -0.59964247      1.27809051
 C      3.48254112     -1.16135729      2.25298432
 H      0.66888122      0.47041312     -0.90651086
 H      0.61980902      0.55558621      0.85741944
 H      0.68172073     -1.02891485      0.07872081
 H      2.79852124     -0.29543789     -1.99185422
 H      2.80367792     -1.69337839     -1.07925452
 H      4.13595557     -0.70167040     -1.09487245
 H      3.82049778      3.54820529     -0.27026005
 H      3.84760599     -1.65051755      3.12958286
