23

 C      1.97953506      0.11378879      0.52916381
 C      0.57623530     -0.44891743      0.58182217
 N      0.00265859     -0.10103204      1.94532579
 C     -0.41289429      0.00171905     -0.51213684
 C     -1.77545484     -0.65401098     -0.26670902
 C     -0.57092161      1.52152560     -0.55255955
 C      0.12879381     -0.49377300     -1.85412337
 H      2.59951341     -0.29049550      1.33352384
 H      1.99000625      1.20379567      0.59721234
 H      2.45644854     -0.16730129     -0.40817584
 H      0.61287865     -1.54226733      0.57818918
 H     -0.08162198      0.91308636      2.04218471
 H      0.60366783     -0.44048909      2.69716939
 H     -0.92834023     -0.50516297      2.06155894
 H     -1.69139779     -1.73893288     -0.15044621
 H     -2.43233361     -0.47314656     -1.11859036
 H     -2.30685489     -0.24429017      0.60074728
 H      0.36795223      2.03190707     -0.77343023
 H     -0.98429442      1.94027969      0.37290209
 H     -1.27656986      1.79178217     -1.34001131
 H      0.29606654     -1.57423722     -1.84757624
 H      1.06214216     -0.00143810     -2.13014833
 H     -0.59614089     -0.27819637     -2.64051011
