22
2475.log
C      1.996614   -0.000464    0.454734
C      0.544167   -0.429321    0.646503
N      0.000305    0.000176    1.933336
C     -0.405885   -0.004019   -0.501804
C     -1.750072   -0.703267   -0.305057
C     -0.628618    1.507677   -0.506997
C      0.171441   -0.431482   -1.849932
H      2.593341   -0.333814    1.307803
H      2.086705    1.088637    0.398178
H      2.446170   -0.423389   -0.445945
H      0.521300   -1.526714    0.658004
H      0.177569    0.988702    2.073637
H      0.474124   -0.482509    2.686753
H     -2.167000   -0.471172    0.675499
H     -1.637415   -1.789452   -0.376758
H     -2.461739   -0.390815   -1.074438
H     -1.122837    1.840566    0.409049
H     -1.273655    1.788649   -1.343820
H      0.307902    2.061203   -0.619434
H      0.430089   -1.495081   -1.850473
H      1.066429    0.135015   -2.116016
H     -0.565662   -0.270604   -2.641269
