21

C       1.97338503      0.05758940      0.31542471
C       0.61095884     -0.54270230      0.56738583
N      -0.01924736      0.19852651      1.73061220
C      -0.35833600     -0.48578843     -0.62588666
C      -1.54208140     -1.42881614     -0.43677269
C      -0.82008612      0.91836560     -0.91125356
C      -0.27053920      1.74457369     -1.79171643
H       2.60896917      0.01490667      1.20379891
H       1.89778966      1.09481288     -0.01925520
H       2.47521829     -0.51185204     -0.46734154
H       0.70496717     -1.57656009      0.90952650
H      -0.15952963      1.17760451      1.46180985
H       0.57670012      0.17264341      2.55881318
H      -0.92992095     -0.19522055      1.97457483
H       0.23268792     -0.83664099     -1.47724541
H      -2.19186574     -1.12601810      0.39353710
H      -1.21487423     -2.45500221     -0.25702264
H      -2.17062525     -1.42905444     -1.32792029
H      -1.71279843      1.24955886     -0.37740704
H       0.58124392      1.45245081     -2.39830125
H      -0.67199682      2.73681597     -1.96088042
