20
2476.log
C      2.030522    0.001601    0.450045
C      0.653970   -0.583259    0.736615
N      0.000015   -0.001822    1.905030
C     -0.274731   -0.493905   -0.493157
C     -1.493283   -1.395117   -0.318675
C     -0.704291    0.913303   -0.769466
C     -0.345529    1.635930   -1.822232
H      2.679100   -0.094325    1.324921
H      1.953923    1.063249    0.197410
H      2.517353   -0.506578   -0.387649
H      0.772112   -1.652200    0.950998
H      0.045390    1.010285    1.859789
H      0.489179   -0.272364    2.749006
H      0.305362   -0.844267   -1.355056
H     -2.053453   -1.104070    0.572193
H     -1.188832   -2.438566   -0.199046
H     -2.156245   -1.331437   -1.184217
H     -1.386082    1.348179   -0.039532
H      0.319029    1.237576   -2.583376
H     -0.707039    2.647782   -1.967821
