18
2477.log
C      2.074760    0.000477    0.370378
C      0.702110   -0.599842    0.645294
N     -0.000313   -0.000688    1.768545
C     -0.199061   -0.550918   -0.606170
C     -1.468891   -1.382687   -0.431332
C     -0.520731    0.826764   -0.963932
C     -0.797807    1.963681   -1.237409
H      2.707057   -0.070476    1.259188
H      1.985240    1.056261    0.099939
H      2.585890   -0.517253   -0.446949
H      0.827888   -1.663905    0.879274
H     -0.144374    0.988449    1.591738
H      0.554952   -0.075663    2.611596
H      0.384022   -0.973226   -1.433906
H     -2.042017   -1.017973    0.420764
H     -1.206915   -2.427627   -0.248250
H     -2.092125   -1.333991   -1.325444
H     -1.046853    2.965947   -1.494475
