19

 C      0.81091745      0.01111831      0.18117618
 C      2.31307094     -0.07390247      0.03833114
 N      2.67679689     -1.51703738     -0.27878760
 C      2.88045554      0.82513549     -1.04280842
 C      4.40958984      0.84978413     -1.12407648
 C      4.87469546      1.76424790     -2.15018882
 C      5.23693987      2.52488202     -3.00230999
 H      0.53735477      1.02537608      0.47280847
 H      0.43004354     -0.66281830      0.95250364
 H      0.30496527     -0.20642283     -0.76357673
 H      2.80272489      0.12517867      0.99600996
 H      2.25065846     -1.80260507     -1.16389242
 H      2.34169134     -2.15323909      0.44704195
 H      3.68777766     -1.63713159     -0.36667474
 H      2.45379615      0.55671457     -2.01619513
 H      2.52538737      1.83671193     -0.83366219
 H      4.82781533      1.14563107     -0.15481422
 H      4.82083629     -0.14478926     -1.35053089
 H      5.56797105      3.20140136     -3.75683664
