23

 C      2.49325143      0.02778525      0.77279798
 C      1.30084177      0.23913707     -0.13097322
 N     -0.00251135     -0.02054814      0.57156290
 C     -0.34460754      1.06313998      1.52764249
 C     -1.16498364     -0.34559315     -0.36544995
 C     -1.33297907      0.70492238     -1.44161663
 C     -0.99903858     -1.74592237     -0.91849959
 H      3.40242375      0.16543470      0.18604255
 H      2.52052426     -0.98828926      1.17555396
 H      2.53449303      0.73763432      1.59941792
 H      1.34085468     -0.44171991     -0.98025322
 H      1.25329188      1.25870676     -0.51345297
 H      0.13816498     -0.86887406      1.12337621
 H     -0.52458114      1.98105549      0.97306836
 H      0.48085665      1.20953549      2.21983374
 H     -1.23918885      0.78091098      2.07990410
 H     -2.03490473     -0.32888548      0.29665596
 H     -0.51727750      0.68573414     -2.16615325
 H     -1.43190537      1.71556865     -1.04277547
 H     -2.25327486      0.48711095     -1.98504438
 H     -0.17138161     -1.82380406     -1.62584472
 H     -1.90764756     -2.01697794     -1.45743472
 H     -0.86169809     -2.48899374     -0.12787707
