20
2484.log
C      2.431482   -0.000452    1.205382
C      1.086165    0.682977    1.357961
N     -0.000882    0.000030    0.679618
C     -1.284053    0.471914    1.149256
C      0.095139    0.093496   -0.765436
C     -0.812424   -0.867778   -1.461655
C     -1.658467   -0.546204   -2.429423
H      3.176160    0.499883    1.828871
H      2.802925    0.025151    0.178912
H      2.365469   -1.044838    1.517386
H      1.161227    1.738656    1.032171
H      0.829038    0.711162    2.420979
H     -1.370592    0.300798    2.224435
H     -2.087945   -0.071601    0.650236
H     -1.437990    1.550491    0.959074
H      1.123850   -0.147526   -1.050697
H     -0.103074    1.121662   -1.125205
H     -0.730969   -1.901567   -1.132088
H     -1.767097    0.479858   -2.768194
H     -2.268470   -1.294181   -2.922606
