18
2485.log
C      2.364364   -0.000063    0.211594
C      1.105301    0.801864    0.473983
N      0.000281    0.000402    0.973650
C     -1.106244    0.831173    1.394264
C     -0.425052   -1.049100    0.066410
C     -0.919600   -0.590542   -1.237944
C     -1.312345   -0.183177   -2.297652
H      3.193538    0.674965   -0.010584
H      2.258051   -0.669482   -0.644779
H      2.632517   -0.596654    1.086650
H      0.820136    1.355549   -0.438044
H      1.314027    1.553008    1.241769
H     -0.764161    1.524591    2.165587
H     -1.893655    0.207790    1.825217
H     -1.546750    1.420293    0.573049
H     -1.213941   -1.625648    0.559642
H      0.404543   -1.741982   -0.096176
H     -1.664361    0.168779   -3.238547
