18

C      -2.03265803      0.33966787     -0.26626268
C      -0.88959317     -0.61195991     -0.01802746
N       0.34367979      0.07097169      0.52645423
C       1.38547878     -0.92186093      0.91707338
C       0.89791996      1.11763136     -0.39382584
C       1.28014376      0.52807110     -1.66389095
N       1.56946852      0.03881347     -2.66116706
H      -2.91223750     -0.25075376     -0.52749388
H      -1.85016989      1.01832971     -1.10041734
H      -2.28962245      0.91947020      0.62438464
H      -1.15185696     -1.36270021      0.72860805
H      -0.57286970     -1.12814864     -0.92604117
H       0.05638594      0.56919266      1.37195263
H       1.69960409     -1.46301591      0.02575845
H       0.95445841     -1.61063827      1.64072494
H       2.23309418     -0.39788660      1.35631057
H       1.76478384      1.57274900      0.09022468
H       0.14049841      1.88791834     -0.54500061
