17

C       1.34883587      1.34375733     -0.00000000
N       0.82050539     -0.02873520      0.00000000
C      -0.24539779     -0.52265282      1.00474000
C      -0.48076619     -1.67959481      0.00000000
C      -0.24539779     -0.52265282     -1.00474000
C      -1.39628315      0.40690282     -0.66508700
C      -1.39628315      0.40690282      0.66508700
H       1.96029553      1.48251670     -0.89121500
H       1.96029553      1.48251670      0.89121500
H       0.52234915      2.04921806     -0.00000000
H       1.59816942     -0.69110080      0.00000000
H       0.09108264     -0.65649544      2.02921800
H       0.29921902     -2.44566265      0.00000000
H      -1.47170830     -2.12155901      0.00000000
H       0.09108264     -0.65649544     -2.02921800
H      -2.03036628      0.91883035     -1.37309100
H      -2.03036628      0.91883035      1.37309100
