17

 C      1.54108999      1.41035328     -0.00000000
 N      1.01275951      0.03786075     -0.00000000
 C     -0.05314367     -0.45605687      1.00474000
 C     -0.28851208     -1.61299886      0.00000000
 C     -0.05314367     -0.45605687     -1.00474000
 C     -1.20402903      0.47349878     -0.66508700
 C     -1.20402903      0.47349878      0.66508700
 H      2.15254965      1.54911265     -0.89121500
 H      2.15254965      1.54911265      0.89121500
 H      0.71460327      2.11581401     -0.00000000
 H      1.79042353     -0.62450485     -0.00000000
 H      0.28333676     -0.58989949      2.02921800
 H      0.49147313     -2.37906670      0.00000000
 H     -1.27945419     -2.05496305      0.00000000
 H      0.28333676     -0.58989949     -2.02921800
 H     -1.83811216      0.98542631     -1.37309100
 H     -1.83811216      0.98542631      1.37309100
