19

 C      1.20096585     -0.04841102      0.13842997
 N      2.65750299     -0.04903074     -0.08526622
 C      3.25281464      0.99129167     -1.04463962
 C      2.90795421      0.02493021     -2.18874530
 C      3.24085021     -1.02493233     -1.11695711
 C      4.72951300     -0.81168817     -0.87433397
 C      4.73874211      0.74358436     -0.81854978
 H      0.92777505     -0.95738566      0.67356951
 H      0.67339216     -0.01125180     -0.81029196
 H      0.93834038      0.82306411      0.73743032
 H      3.13355640     -0.08421666      0.81696346
 H      2.84638908      1.99599184     -0.95521595
 H      1.86740826      0.04236673     -2.50272722
 H      3.55928100      0.05227423     -3.05885871
 H      2.82250701     -2.02856939     -1.09956806
 H      5.31715901     -1.22027959     -1.69505899
 H      5.07662031     -1.27950384      0.04847938
 H      5.09097749      1.13993979      0.13525948
 H      5.33153853      1.20292954     -1.60814384
