19

C       1.27348843     -0.04704701      0.08840286
N       2.73002557     -0.04766673     -0.13529333
C       3.32533722      0.99265568     -1.09466673
C       2.98047679      0.02629422     -2.23877241
C       3.31337279     -1.02356832     -1.16698422
C       4.80203558     -0.81032416     -0.92436108
C       4.81126469      0.74494837     -0.86857689
H       1.00029763     -0.95602165      0.62354240
H       0.74591474     -0.00988779     -0.86031908
H       1.01086296      0.82442812      0.68740320
H       3.20607898     -0.08285265      0.76693635
H       2.91891166      1.99735585     -1.00524306
H       1.93993084      0.04373074     -2.55275433
H       3.63180358      0.05363824     -3.10888582
H       2.89502959     -2.02720538     -1.14959517
H       5.38968159     -1.21891559     -1.74508610
H       5.14914289     -1.27813984     -0.00154773
H       5.16350007      1.14130379      0.08523237
H       5.40406111      1.20429354     -1.65817095
