18
2573.log
C      1.316792    1.441250   -0.000000
N      1.338919   -0.000102    0.000000
C      0.399595   -0.807504    0.744215
C     -0.896543   -0.206503    1.238349
C     -1.632181    0.342286    0.000000
C     -0.896543   -0.206503   -1.238349
C      0.399595   -0.807504   -0.744215
H      1.856128    1.798485    0.880662
H      0.324490    1.909044   -0.000000
H      1.856128    1.798485   -0.880662
H      0.844981   -1.608920    1.327813
H     -0.733156    0.567582    1.994907
H     -1.477133   -0.996081    1.723863
H     -1.629906    1.433963    0.000000
H     -2.682190    0.042109   -0.000000
H     -0.733156    0.567582   -1.994907
H     -1.477133   -0.996081   -1.723863
H      0.844981   -1.608920   -1.327813
