17

C       1.17609870     -0.06312873     -0.61909906
N       2.41234816     -0.07928013      0.16791877
C       3.65917331      0.66573582     -0.17231901
C       3.78925780      1.13249423     -1.60265186
C       3.84633844     -0.14565351     -2.38634036
C       3.79845681     -1.22267696     -1.60293825
C       3.69374993     -0.81603984     -0.18586366
H       0.52640036     -0.85719795     -0.25362483
H       1.40535443     -0.23772231     -1.66680705
H       0.69237512      0.90528780     -0.49522377
H       2.23749973     -0.08197071      1.16724160
H       4.04125102      1.26210312      0.64601495
H       2.97641387      1.79570612     -1.91698159
H       4.70973429      1.71507776     -1.70930984
H       3.90649838     -0.16243019     -3.46747210
H       3.83496843     -2.25602989     -1.91840951
H       4.06933878     -1.42194178      0.62904656
