19

C       1.03197052      0.31532308     -0.36288245
N       2.49525339      0.27943634     -0.25455159
C       3.29431481     -0.79320777     -0.88398308
C       3.38576621      0.58507997     -1.40505419
C       4.57927161      1.43974872     -1.17810906
C       4.45676289      2.85925454     -0.72161665
C       5.06882006      1.83565207      0.18291596
H       0.68935591      1.33912771     -0.21953800
H       0.60363084     -0.33767180      0.39672766
H       0.74322666     -0.03396306     -1.35258848
H       2.86000859      0.59291014      0.64016597
H       4.09864008     -1.16950706     -0.26415328
H       2.70048266     -1.53229085     -1.40652656
H       2.80477050      0.79829962     -2.29766307
H       5.34699310      1.23337277     -1.91713211
H       3.47101737      3.22950811     -0.46344136
H       5.09955508      3.59697591     -1.18265755
H       6.13946198      1.84725234      0.33843081
H       4.51936629      1.55766761      1.07818888
