19

 C      0.89505059      0.31228794     -0.29575415
 N      2.35833346      0.27640120     -0.18742329
 C      3.15739488     -0.79624291     -0.81685479
 C      3.24884628      0.58204483     -1.33792590
 C      4.44235168      1.43671359     -1.11098077
 C      4.31984296      2.85621940     -0.65448836
 C      4.93190013      1.83261693      0.25004425
 H      0.55243598      1.33609257     -0.15240970
 H      0.46671091     -0.34070694      0.46385596
 H      0.60630673     -0.03699820     -1.28546018
 H      2.72308866      0.58987500      0.70729426
 H      3.96172015     -1.17254220     -0.19702499
 H      2.56356273     -1.53532599     -1.33939827
 H      2.66785057      0.79526449     -2.23053477
 H      5.21007317      1.23033764     -1.85000382
 H      3.33409744      3.22647297     -0.39631306
 H      4.96263515      3.59394078     -1.11552926
 H      6.00254205      1.84421720      0.40555910
 H      4.38244637      1.55463247      1.14531717
