19

 C      0.84499785      0.33911886     -0.60410031
 N      2.21710588      0.10271950     -0.13971852
 C      3.02111724     -1.03161342     -0.64542471
 C      3.40730444      0.34397334     -1.00692841
 C      4.59916660      1.02704889     -0.39661463
 C      5.83224752      0.73092563     -1.19795897
 C      6.52002545      1.65270821     -1.85352144
 H      0.59697298      1.38973804     -0.45917015
 H      0.16226654     -0.29296063     -0.03704167
 H      0.78389835      0.08927097     -1.66180212
 H      2.36915630      0.32237627      0.84000499
 H      3.58472189     -1.55629982      0.11665437
 H      2.49604773     -1.65295501     -1.35982337
 H      3.11185453      0.68679750     -1.99323877
 H      4.42309209      2.10531457     -0.36373321
 H      4.72919902      0.67747573      0.63635815
 H      6.15877393     -0.30595371     -1.21848865
 H      6.23030390      2.69872520     -1.84504930
 H      7.41040471      1.39559941     -2.41408710
