17

C       1.28743030      0.79585206     -0.25699886
N       2.74429283      0.72207238     -0.08622994
C       3.53625962     -0.41380187     -0.60776059
C       3.67906844      0.91809527     -1.22186928
C       4.87219464      1.80169084     -0.96484961
C       4.47103877      3.18554933     -0.77756731
C       4.10958065      4.31590434     -0.60917655
H       0.98432997      1.84118205     -0.21993673
H       0.80701881      0.22972796      0.54000904
H       1.02461859      0.36826543     -1.22302566
H       3.07673500      1.11488693      0.79041875
H       4.30545756     -0.77383232      0.06464419
H       2.94166553     -1.17320560     -1.09959653
H       3.14308439      1.10114914     -2.14688876
H       5.54861177      1.70700876     -1.82079192
H       5.43238176      1.44345122     -0.09327617
H       3.81608250      5.33213735     -0.46943795
