19

 C      1.25642876     -0.00013714      1.81827977
 N      0.01073968      0.00169106      1.02067370
 C     -0.26516743     -1.27224688      0.22365272
 C     -0.47777533     -0.64815109     -1.14608813
 C     -1.34795796      0.58267693     -0.79657664
 C     -0.06393530      1.03302777     -0.08915966
 C      0.70705057      0.34118735     -1.21884576
 H      1.35037432      0.95520549      2.33307484
 H      2.10631886     -0.15012142      1.15703454
 H      1.21012498     -0.80928022      2.54604375
 H     -0.76798008      0.16574662      1.65752443
 H     -1.13741964     -1.77649896      0.63815310
 H      0.60489318     -1.92393724      0.29172528
 H     -0.72265621     -1.33235809     -1.95342877
 H     -1.56154609      1.20328240     -1.66396745
 H     -2.25328218      0.44420667     -0.20020539
 H      0.13026818      2.03555132      0.28602580
 H      1.72042549     -0.01970723     -1.03940798
 H      0.68387328      0.94642547     -2.12273038
