19

C       1.16837490      0.01705814      1.69974097
N      -0.07731418      0.01888634      0.90213490
C      -0.35322128     -1.25505160      0.10511392
C      -0.56582918     -0.63095581     -1.26462693
C      -1.43601181      0.59987221     -0.91511544
C      -0.15198915      1.05022305     -0.20769846
C       0.61899672      0.35838263     -1.33738456
H       1.26232046      0.97240077      2.21453604
H       2.01826500     -0.13292614      1.03849574
H       1.12207112     -0.79208494      2.42750495
H      -0.85603394      0.18294190      1.53898563
H      -1.22547349     -1.75930368      0.51961430
H       0.51683933     -1.90674196      0.17318648
H      -0.81071006     -1.31516281     -2.07196757
H      -1.64959994      1.22047768     -1.78250625
H      -2.34133603      0.46140195     -0.31874419
H       0.04221432      2.05274660      0.16748700
H       1.63237164     -0.00251195     -1.15794678
H       0.59581943      0.96362075     -2.24126918
