19

 C      1.25662079      0.00029126      1.81837467
 N      0.01068503      0.00143980      1.02070991
 C     -0.26520612     -1.27241727      0.22344339
 C     -0.47783032     -0.64809428     -1.14625682
 C     -1.34797015      0.58276618     -0.79655788
 C     -0.06399782      1.03283547     -0.08890485
 C      0.70708958      0.34116586     -1.21886843
 H      1.34822906      0.95465324      2.33537685
 H      2.10658357     -0.14541027      1.15634074
 H      1.21225705     -0.81083606      2.54396664
 H     -0.76784985      0.16516511      1.65786994
 H      0.60487422     -1.92403212      0.29121022
 H     -1.13755204     -1.77654101      0.63777116
 H     -0.72279785     -1.33229204     -1.95358414
 H     -1.56079248      1.20367171     -1.66393135
 H     -2.25366933      0.44423750     -0.20077254
 H      0.12970936      2.03545470      0.28622615
 H      1.71993065     -0.02083544     -1.03882155
 H      0.68524121      0.94655507     -2.12262943
