17

 C      1.01399063      0.05365646      0.05764333
 N      2.48606096      0.05579053      0.10552426
 C      3.21406880      1.13046479      0.88299347
 C      4.26419035      0.08326575      1.31614527
 C      3.21564763     -0.98322567      0.92864586
 C      5.44104228      0.06594410      0.47334238
 C      6.40004537      0.05128203     -0.24613957
 H      0.67318397      0.93380159     -0.48689260
 H      0.62962782      0.07536524      1.07605702
 H      0.67451581     -0.84968697     -0.44837204
 H      2.85959240      0.03555123     -0.84445601
 H      2.57225106      1.45899140      1.69935126
 H      3.53482064      1.96965213      0.27071117
 H      4.52776280      0.10629782      2.37344863
 H      3.53767229     -1.84758755      0.35315775
 H      2.57429495     -1.27715672      1.75844746
 H      7.26664368      0.03862305     -0.86880807
