17

C       1.50472930      0.05420118      0.06607222
N       2.97679963      0.05633525      0.11395315
C       3.70480748      1.13100951      0.89142236
C       4.75492902      0.08381047      1.32457416
C       3.70638630     -0.98268095      0.93707475
C       5.93178095      0.06648882      0.48177127
C       6.89078404      0.05182674     -0.23771068
H       1.16392264      0.93434631     -0.47846371
H       1.12036649      0.07590996      1.08448591
H       1.16525448     -0.84914225     -0.43994315
H       3.35033107      0.03609595     -0.83602712
H       3.06298974      1.45953612      1.70778015
H       4.02555932      1.97019685      0.27914006
H       5.01850148      0.10684254      2.38187752
H       4.02841096     -1.84704283      0.36158664
H       3.06503362     -1.27661200      1.76687635
H       7.75738235      0.03916776     -0.86037918
