21

 C      1.04134131     -0.08230202      0.01349973
 N      2.50755147     -0.12374963      0.12395221
 C      3.22328385      0.93738641      0.91912839
 C      4.22679355     -0.10065908      1.41766342
 C      3.25839776     -1.21308907      0.95965189
 C      2.38648509     -1.74432699      2.07057064
 C      3.80969098     -2.29731063      0.07192471
 H      0.69208456     -0.96354258     -0.52362931
 H      0.75732416      0.81589661     -0.53528322
 H      0.60292686     -0.05545141      1.00776306
 H      2.90187237     -0.15309256     -0.81589101
 H      2.54871515      1.30840915      1.68917676
 H      3.57313580      1.76471012      0.30509877
 H      5.16023166     -0.09619069      0.85427877
 H      4.45001057     -0.07860454      2.48192303
 H      1.56223622     -2.35137285      1.69135702
 H      1.98686739     -0.95512151      2.71044453
 H      3.00474604     -2.38699576      2.70008725
 H      4.41321343     -1.89172447     -0.74462759
 H      3.01484849     -2.92039763     -0.34536433
 H      4.45923004     -2.94607286      0.66302536
