21

C       1.12608632     -0.00318540      0.01418654
N       2.59229648     -0.04463301      0.12463902
C       3.30802887      1.01650303      0.91981520
C       4.31153856     -0.02154247      1.41835023
C       3.34314277     -1.13397245      0.96033870
C       2.47123010     -1.66521037      2.07125744
C       3.89443599     -2.21819401      0.07261151
H       0.77682957     -0.88442596     -0.52294250
H       0.84206917      0.89501323     -0.53459641
H       0.68767187      0.02366521      1.00844987
H       2.98661738     -0.07397594     -0.81520420
H       2.63346017      1.38752577      1.68986357
H       3.65788082      1.84382674      0.30578558
H       5.24497667     -0.01707408      0.85496558
H       4.53475558      0.00051207      2.48260984
H       1.64698123     -2.27225623      1.69204382
H       2.07161240     -0.87600489      2.71113134
H       3.08949105     -2.30787914      2.70077405
H       4.49795844     -1.81260785     -0.74394079
H       3.09959350     -2.84128101     -0.34467753
H       4.54397505     -2.86695625      0.66371216
