19

 C      1.02581526     -0.29455320      0.17797446
 N      2.48229076     -0.09029323      0.20160258
 C      3.07577332      1.07467288      0.96020982
 C      4.22331021      0.17818017      1.42700110
 C      3.36826218     -1.04065141      1.03680042
 C      3.94623523     -2.17506859      0.28690340
 C      3.68520705     -3.44239064      0.57961324
 H      0.55722075      0.50829354     -0.39093388
 H      0.65410854     -0.28769939      1.20123995
 H      0.81147845     -1.25523432     -0.28980042
 H      2.83592352     -0.08896214     -0.75567650
 H      2.38398663      1.35382584      1.75374570
 H      3.28780895      1.93425484      0.32774050
 H      4.50839504      0.24835054      2.47329014
 H      5.11362881      0.27252971      0.80437357
 H      2.74241299     -1.38065689      1.86389413
 H      4.64319477     -1.92954475     -0.51265895
 H      3.01768332     -3.71673362      1.39040523
 H      4.14546779     -4.25404570      0.02916428
