18
2595.log
C      1.157904   -0.000078    1.855868
N     -0.000180    0.000046    0.999166
C     -0.231248    1.269250    0.324055
C     -1.125250    0.923050   -0.865481
C     -0.721020   -0.493508   -1.208640
C      0.750573   -0.799364   -1.292688
C     -0.013167   -1.022301   -0.010352
H      1.042006    0.759902    2.632753
H      2.097245    0.206731    1.312739
H      1.257279   -0.969506    2.349462
H      0.714722    1.712840   -0.030351
H     -0.685034    1.992447    1.007410
H     -1.004443    1.630813   -1.689386
H     -2.177340    0.930996   -0.567796
H     -1.410784   -1.112765   -1.768592
H      1.455485    0.022056   -1.353060
H      1.039551   -1.675389   -1.860535
H     -0.160847   -2.033749    0.351566
