20
2600.log
C      1.491005    1.409436    0.000000
N      1.173516    0.000954   -0.000000
C      0.483825   -0.446678    1.197126
C     -0.991379   -0.052507    1.252925
C     -1.713383   -0.534094    0.000000
C     -0.991379   -0.052508   -1.252925
C      0.483825   -0.446677   -1.197126
H      2.091625    1.644387    0.882684
H      0.621814    2.088412   -0.000000
H      2.091626    1.644387   -0.882683
H      1.021484   -0.065545    2.070406
H      0.556641   -1.541819    1.231975
H     -1.083186    1.036668    1.335990
H     -1.451738   -0.473325    2.152510
H     -2.755652   -0.201932    0.000000
H     -1.734924   -1.631993    0.000000
H     -1.083186    1.036668   -1.335990
H     -1.451738   -0.473325   -2.152510
H      1.021484   -0.065544   -2.070406
H      0.556641   -1.541819   -1.231975
