21

 C      1.46159231      1.44885119      0.00000000
 N      1.18810299     -0.01209116     -0.00000000
 C      0.47283553     -0.47787309      1.24272700
 C     -0.97735609     -0.04511811      1.25289800
 C     -1.70462421     -0.51285165     -0.00000000
 C     -0.97735609     -0.04511811     -1.25289800
 C      0.47283553     -0.47787309     -1.24272700
 H      2.03427707      1.69867006     -0.89170700
 H      2.03427707      1.69867006      0.89170700
 H      0.52471176      1.99787213      0.00000000
 H      2.09705798     -0.47472175     -0.00000000
 H      0.55197375     -1.56756022      1.24212600
 H      1.03241161     -0.09162595      2.09569600
 H     -1.43436616     -0.46813371      2.15035600
 H     -1.05277964      1.04109517      1.36158200
 H     -1.76862879     -1.60668691     -0.00000000
 H     -2.73016436     -0.14107952      0.00000000
 H     -1.05277964      1.04109517     -1.36158200
 H     -1.43436616     -0.46813371     -2.15035600
 H      1.03241161     -0.09162595     -2.09569600
 H      0.55197375     -1.56756022     -1.24212600
