21

C       0.95135839      0.01385862      0.24450933
N       2.42307694      0.00068319      0.17616101
C       3.21467023      1.05671615      0.91711843
C       4.26161520     -0.00686838      1.31785817
C       4.68790282     -0.00000243      2.76885249
C       5.45344074     -0.02398273      0.37375918
C       3.19646379     -1.05797389      0.93245255
H       0.57756412      0.90586238     -0.25759155
H       0.64987461      0.02398860      1.29051500
H       0.56218111     -0.87870607     -0.24474340
H       2.71065158     -0.00887288     -0.80131411
H       2.60971027      1.41262812      1.75107466
H       3.51626617      1.88869096      0.28209204
H       5.30258743      0.87667871      2.98442995
H       5.28749000     -0.88387626      2.99719828
H       3.83022495      0.01226032      3.44554019
H       5.15867134     -0.02919267     -0.68105477
H       6.06618188     -0.91046189      0.54835378
H       6.08128008      0.85434813      0.53541882
H       3.48360941     -1.90413875      0.30959417
H       2.58556795     -1.39128624      1.77140577
