19

 C      1.47556057      0.01212453      1.26847259
 N     -0.00771389     -0.00267969      1.15495440
 C     -0.52620134     -1.21771535      0.43533948
 C     -0.03728578     -1.24727235     -0.99600532
 C     -0.14811895      0.09227461     -1.64604562
 C     -0.38276171      1.20625337     -0.96548353
 C     -0.54014691      1.24716688      0.51764501
 H      1.76637800      0.82218418      1.93517023
 H      1.90279211      0.17578975      0.28237360
 H      1.80950785     -0.94124658      1.67481735
 H     -0.38031813     -0.03872076      2.10348864
 H     -0.21053693     -2.09293014      1.00377219
 H     -1.61462592     -1.14790619      0.47527964
 H      0.99051215     -1.62235320     -1.06167195
 H     -0.64338526     -1.97873745     -1.53825787
 H     -0.01995598      0.13737416     -2.72174057
 H     -0.47071691      2.16124555     -1.47055114
 H     -1.58941197      1.34080754      0.81390328
 H      0.00161530      2.08833831      0.95559626
