19

C       1.37937263      0.07795090      1.11855730
N      -0.10390183      0.06314669      1.00503911
C      -0.62238928     -1.15188897      0.28542419
C      -0.13347372     -1.18144598     -1.14592061
C      -0.24430689      0.15810098     -1.79596091
C      -0.47894965      1.27207974     -1.11539882
C      -0.63633485      1.31299326      0.36772972
H       1.67019006      0.88801055      1.78525494
H       1.80660417      0.24161612      0.13245831
H       1.71331991     -0.87542021      1.52490206
H      -0.47650607      0.02710562      1.95357335
H      -0.30672487     -2.02710376      0.85385690
H      -1.71081386     -1.08207981      0.32536435
H       0.89432421     -1.55652683     -1.21158724
H      -0.73957320     -1.91291108     -1.68817316
H      -0.11614392      0.20320053     -2.87165586
H      -0.56690485      2.22707192     -1.62046643
H      -1.68559991      1.40663392      0.66398799
H      -0.09457264      2.15416469      0.80568097
