18
2603.log
C      1.435904   -0.000194    1.320141
N     -0.000420   -0.000070    1.150084
C     -0.487066   -1.172702    0.445706
C     -0.033217   -1.242582   -1.012107
C     -0.186496    0.090719   -1.673819
C     -0.404229    1.203154   -0.980394
C     -0.491144    1.211827    0.519266
H      1.741087   -0.929934    1.807290
H      1.725515    0.826861    1.973203
H      2.006822    0.096886    0.382032
H     -1.581852   -1.144236    0.476611
H     -0.174103   -2.067017    0.992269
H     -0.617587   -1.998736   -1.547984
H      1.010643   -1.576281   -1.081012
H     -0.117641    0.133422   -2.757313
H     -0.542336    2.149786   -1.496204
H     -1.536626    1.374620    0.819461
H      0.067960    2.062668    0.921979
