19

 C      1.10761403     -0.06747626     -0.12914877
 N      2.55356566     -0.11103217      0.18359163
 C      3.06369875      1.06696575      0.96675239
 C      4.43616434      0.62032661      1.44477862
 C      4.33876575     -0.88945497      1.51515782
 C      5.26427754     -1.72929860      1.94630111
 C      2.99290790     -1.29943935      0.98704118
 H      0.83653765     -0.95512739     -0.69869716
 H      0.89450698      0.82721276     -0.71223669
 H      0.55114582     -0.04234518      0.80628637
 H      3.06961041     -0.13551977     -0.69800380
 H      2.36352389      1.20825327      1.79163875
 H      3.05235054      1.95317577      0.33376612
 H      4.67989245      1.06971390      2.40810522
 H      5.21541614      0.92483851      0.74078892
 H      5.11313551     -2.80247943      1.93232980
 H      6.20903796     -1.37234150      2.33884371
 H      2.99260458     -2.19126307      0.36084751
 H      2.25238739     -1.42265817      1.78296069
