21

 C      1.44828250     -0.12416400      2.09020993
 N      0.04950114      0.13835882      1.65122245
 C     -0.34574292     -0.60463347      0.43640368
 C     -1.58345211     -0.18917162     -0.28729001
 C     -0.23606428      0.04702061     -0.91222192
 C      0.24733516      1.47246689     -1.02107684
 C      0.19604450     -0.84742923     -2.04641527
 H      1.66325676      0.47050171      2.97630870
 H      2.11831963      0.14634041      1.27757342
 H      1.54650778     -1.18385362      2.31677775
 H     -0.59692524     -0.08496088      2.41130993
 H     -0.06067003      1.13764758      1.46497535
 H     -0.11053023     -1.65660441      0.54332945
 H     -2.22036010     -0.97917179     -0.66492577
 H     -2.12171637      0.67985101      0.07764597
 H     -0.10001177      1.90005663     -1.96373670
 H      1.33884750      1.53128465     -1.02121365
 H     -0.14191600      2.13513976     -0.24003185
 H     -0.21055615     -0.47842218     -2.99046182
 H     -0.15680967     -1.87161585     -1.91094409
 H      1.28472777     -0.87041379     -2.13590926
