21

C       1.32064650     -0.17611082      2.07501786
N      -0.07813486      0.08641200      1.63603038
C      -0.47337891     -0.65658029      0.42121161
C      -1.71108810     -0.24111844     -0.30248208
C      -0.36370027     -0.00492621     -0.92741399
C       0.11969917      1.42052007     -1.03626891
C       0.06840851     -0.89937605     -2.06160734
H       1.53562076      0.41855489      2.96111663
H       1.99068363      0.09439359      1.26238135
H       1.41887178     -1.23580044      2.30158568
H      -0.72456124     -0.13690770      2.39611786
H      -0.18830603      1.08570076      1.44978328
H      -0.23816623     -1.70855123      0.52813738
H      -2.34799609     -1.03111861     -0.68011784
H      -2.24935236      0.62790419      0.06245390
H      -0.22764776      1.84810981     -1.97892877
H       1.21121151      1.47933783     -1.03640572
H      -0.26955199      2.08319294     -0.25522392
H      -0.33819214     -0.53036900     -3.00565389
H      -0.28444566     -1.92356267     -1.92613616
H       1.15709178     -0.92236061     -2.15110133
