20
2620.log
C      1.419656    0.000850    1.986078
N     -0.000348   -0.001170    1.705285
C     -0.348674   -0.606214    0.462124
C     -1.564446   -0.157218   -0.276795
C     -0.205720    0.045630   -0.900755
C      0.312674    1.454620   -1.007184
C      0.162762   -0.844050   -2.057921
H      1.601974    0.475013    2.952732
H      2.030966    0.510903    1.226192
H      1.774552   -1.031376    2.055866
H     -0.391496    0.926643    1.783980
H     -0.164743   -1.678874    0.468317
H     -2.071050    0.724188    0.104196
H     -2.231196   -0.902801   -0.694319
H      0.109550    2.036121   -0.104929
H     -0.155611    1.979409   -1.845854
H      1.394093    1.465618   -1.173484
H     -0.214197   -1.859761   -1.912874
H      1.249118   -0.904312   -2.177800
H     -0.255560   -0.467510   -2.997460
