21

C       1.22521265      0.36770699     -0.30131033
N       2.47326492     -0.06349181      0.38332092
C       3.13098273     -1.27955825     -0.20145122
C       4.35785288     -1.81430871      0.53578827
C       3.84336813     -3.22781720      0.19709039
C       2.43050021     -2.63732035     -0.02667214
C       1.56465603     -3.19474767     -1.13054808
H       0.83607884      1.25838832      0.18907840
H       0.50015202     -0.43997177     -0.24105315
H       1.45665272      0.58341774     -1.34240504
H       2.27252981     -0.25563047      1.36690621
H       3.14732296      0.70517537      0.37987122
H       3.32950247     -1.04526030     -1.24948571
H       4.30100139     -1.62292495      1.61146768
H       5.33826766     -1.50955357      0.17283722
H       4.26801519     -3.59856918     -0.73726862
H       3.94831030     -3.99392136      0.96227818
H       1.89346620     -2.64278074      0.93114200
H       2.08769184     -3.16930105     -2.08965760
H       0.62232559     -2.65276195     -1.24259991
H       1.31426345     -4.23646908     -0.92047969
