21

 C      1.09492243      0.41908370     -0.35472959
 N      2.34297470     -0.01211510      0.32990166
 C      3.00069251     -1.22818154     -0.25487048
 C      4.22756266     -1.76293200      0.48236901
 C      3.71307791     -3.17644049      0.14367113
 C      2.30020999     -2.58594364     -0.08009140
 C      1.43436581     -3.14337096     -1.18396734
 H      0.70578862      1.30976503      0.13565914
 H      0.36986180     -0.38859506     -0.29447241
 H      1.32636250      0.63479445     -1.39582430
 H      2.14223959     -0.20425376      1.31348695
 H      3.01703274      0.75655208      0.32645196
 H      3.19921225     -0.99388359     -1.30290497
 H      4.17071117     -1.57154823      1.55804842
 H      5.20797744     -1.45817685      0.11941796
 H      4.13772497     -3.54719247     -0.79068788
 H      3.81802008     -3.94254464      0.90885892
 H      1.76317598     -2.59140403      0.87772274
 H      1.95740162     -3.11792434     -2.14307686
 H      0.49203537     -2.60138524     -1.29601917
 H      1.18397323     -4.18509237     -0.97389895
