20
2628.log
C      1.383911    0.001884    1.702908
N      0.000138   -0.000843    1.276755
C     -0.241238    0.500509   -0.046272
C      0.206813    1.909609   -0.355205
C     -1.515893    0.023820   -0.676977
C     -0.198786   -0.509251   -1.167111
C      0.165369   -1.948309   -0.941039
H      1.456571   -0.449286    2.694960
H      1.854374    0.995602    1.748969
H      1.973576   -0.612173    1.017824
H     -0.579853    0.492445    1.943964
H      1.289312    2.023365   -0.250704
H     -0.274319    2.627095    0.318190
H     -0.054737    2.186743   -1.378775
H     -2.071435    0.713073   -1.302161
H     -2.121792   -0.653249   -0.085957
H      0.136889   -0.101051   -2.116478
H     -0.107707   -2.256085    0.069325
H      1.238927   -2.114649   -1.069029
H     -0.355350   -2.597292   -1.650881
