21

C       3.06436196      0.21349464      1.03500060
N       2.27858307     -0.02319829     -0.20764335
C       2.88320961      0.55250873     -1.42730693
C       1.99045787      0.97811179     -2.55402139
C       0.49451037      0.82238559     -2.50435808
C       2.69495614      2.00729003     -1.71668478
C       3.83867342      2.82692060     -2.24330193
H       2.54499139     -0.23773724      1.87891726
H       3.16362141      1.28704735      1.17708170
H       4.04705910     -0.23733712      0.91332987
H       2.14836873     -1.02873725     -0.34156316
H       1.33863591      0.36285241     -0.09909298
H       3.83632012      0.08216274     -1.63782244
H       2.42567395      0.79051048     -3.53078724
H       0.06350457      1.11324696     -1.53996932
H       0.18045098     -0.19880264     -2.73335702
H       0.03233314      1.47849891     -3.24384619
H       2.03606309      2.53043653     -1.02466748
H       4.45910393      2.24446441     -2.92776427
H       4.47562810      3.19099077     -1.43467608
H       3.46335114      3.69269661     -2.79141075
