20
2633.log
C      1.289808    0.000659    2.390771
N     -0.000115   -0.000554    1.737278
C      0.033664   -0.314774    0.328133
C     -1.366986   -0.363558   -0.283047
C     -1.171759   -0.204961   -1.800792
C      0.308191    0.188451   -1.995834
C      0.780966    0.635138   -0.617841
H      1.162969    0.230730    3.450903
H      2.020154    0.711593    1.973456
H      1.729071   -0.999069    2.324168
H     -0.465062    0.889332    1.874723
H      0.495343   -1.308304    0.235406
H     -1.946198    0.475700    0.118376
H     -1.901136   -1.273136   -0.004759
H     -1.837333    0.563658   -2.199393
H     -1.407293   -1.125963   -2.337849
H      0.444103    0.952558   -2.763799
H      0.888218   -0.683236   -2.313859
H      0.456270    1.663685   -0.412910
H      1.866944    0.602615   -0.506873
