21

C       1.26379578      0.02390462      1.84743265
N      -0.06898168      0.12675942      1.19764166
C      -0.16440068     -0.30912036     -0.25830578
C       0.27312894     -1.74282746     -0.38790966
C      -1.55616843      0.11706830     -0.77224098
C      -0.93953299      1.42723285     -1.30304217
C       0.45357238      0.78328042     -1.15523849
H       1.21066116      0.48459926      2.83248478
H       1.99607598      0.54318733      1.23380126
H       1.53345181     -1.02401580      1.94526610
H      -0.74676035     -0.42103288      1.73194864
H      -0.39128060      1.09542421      1.24640368
H       0.09418545     -2.06966064     -1.41233862
H      -0.29710821     -2.40773667      0.26873533
H       1.33823222     -1.87624723     -0.18859615
H      -2.37025645      0.17676904     -0.04440789
H      -1.87531177     -0.54561012     -1.57634480
H      -1.09393632      2.27882531     -0.63589423
H      -1.23376857      1.73791821     -2.30296727
H       0.80215347      0.33748629     -2.08689514
H       1.26855786      1.38597991     -0.74963792
