17

C       2.20525055      0.09858493      1.31133291
N       2.42659428     -0.45240623     -0.05273986
C       3.38750145     -1.61133005     -0.13765846
C       3.61068489     -2.01747828     -1.56675749
C       3.31399441     -3.31494927     -1.68530301
C       2.84362767     -3.83202896     -0.39242385
C       2.84767499     -2.85125961      0.51639561
H       1.51607810      0.93868558      1.24428035
H       3.16122099      0.42936575      1.71255508
H       1.78223123     -0.68039391      1.94025339
H       1.53769563     -0.76799304     -0.44901871
H       2.76285668      0.29313343     -0.66501052
H       4.31752052     -1.27642427      0.33706865
H       4.00458293     -1.35934681     -2.33002599
H       3.41486313     -3.91092096     -2.58231854
H       2.55649644     -4.85954943     -0.21376190
H       2.59504584     -2.93451130      1.56377306
