17

 C      2.09757709      0.44239157      1.51281279
 N      2.31892082     -0.10859959      0.14874002
 C      3.27982799     -1.26752341      0.06382142
 C      3.50301143     -1.67367164     -1.36527761
 C      3.20632095     -2.97114263     -1.48382313
 C      2.73595421     -3.48822232     -0.19094397
 C      2.74000153     -2.50745297      0.71787549
 H      1.40840464      1.28249222      1.44576023
 H      3.05354752      0.77317239      1.91403496
 H      1.67455776     -0.33658727      2.14173327
 H      1.43002217     -0.42418640     -0.24753883
 H      2.65518322      0.63694007     -0.46353064
 H      4.20984706     -0.93261763      0.53854853
 H      3.89690947     -1.01554017     -2.12854611
 H      3.30718967     -3.56711432     -2.38083866
 H      2.44882298     -4.51574279     -0.01228202
 H      2.48737238     -2.59070466      1.76525294
