18
2636.log
C      1.211786   -0.000149    2.275352
N     -0.000014    0.000142    1.488610
C      0.111881   -0.650380    0.194820
C     -1.276600   -0.711021   -0.469786
C     -1.247791    0.416522   -1.457664
C     -0.013411    0.867879   -1.652664
C      0.989034    0.111604   -0.832474
H      1.034708    0.525603    3.215857
H      2.086553    0.463406    1.791107
H      1.482307   -1.031372    2.521460
H     -0.340854    0.946546    1.362183
H      0.508266   -1.652436    0.382294
H     -2.063841   -0.619984    0.283599
H     -1.437748   -1.667687   -0.981581
H     -2.132385    0.783562   -1.965450
H      0.257240    1.662357   -2.338850
H      1.723431    0.757834   -0.341660
H      1.562456   -0.577379   -1.465772
