19

 C      2.83392024      1.36649757      0.02323165
 N      2.43878294     -0.06178599     -0.07078284
 C      2.99795982     -0.81034769     -1.28316737
 C      2.47823735     -2.25188012     -1.31041369
 C      3.63572215     -3.12708024     -0.80166154
 C      4.81354280     -2.21200384     -0.87264754
 C      4.48172970     -0.95434571     -1.15559369
 H      2.36341027      1.81171790      0.89821052
 H      2.50451485      1.87898393     -0.87872514
 H      3.91568168      1.42633739      0.11385423
 H      2.75051830     -0.55688640      0.76741434
 H      1.42000850     -0.13150871     -0.09083527
 H      2.66836707     -0.21202020     -2.13570019
 H      2.24536188     -2.50512340     -2.34524881
 H      1.55080166     -2.38431571     -0.74604468
 H      3.77526633     -4.01474405     -1.42262180
 H      3.48638195     -3.49846420      0.21822095
 H      5.83001942     -2.55400803     -0.71721379
 H      5.17654839     -0.13582580     -1.29323791
