19

C       2.98693211      1.21250997     -0.06871517
N       2.59179481     -0.21577359     -0.16272966
C       3.15097169     -0.96433529     -1.37511419
C       2.63124921     -2.40586772     -1.40236051
C       3.78873401     -3.28106784     -0.89360836
C       4.96655466     -2.36599144     -0.96459436
C       4.63474156     -1.10833331     -1.24754051
H       2.51642214      1.65773030      0.80626369
H       2.65752672      1.72499633     -0.97067196
H       4.06869355      1.27234979      0.02190741
H       2.90353016     -0.71087400      0.67546752
H       1.57302036     -0.28549631     -0.18278209
H       2.82137894     -0.36600780     -2.22764701
H       2.39837374     -2.65911100     -2.43719563
H       1.70381352     -2.53830331     -0.83799150
H       3.92827819     -4.16873165     -1.51456862
H       3.63939381     -3.65245180      0.12627413
H       5.98303128     -2.70799564     -0.80916061
H       5.32956026     -0.28981341     -1.38518473
