21

 C      1.20601058     -0.91478191      0.43130392
 N      2.65985477     -0.60884468      0.37913049
 C      3.22342413      0.01623104      1.62436591
 C      4.70971274      0.20763450      1.48737835
 C      5.49274149      0.61313462      2.75416682
 C      6.62569678     -0.32379750      2.29459241
 C      5.61508854     -1.04233006      1.37848012
 H      0.89849217     -1.36229926     -0.51229196
 H      0.66093268      0.01150940      0.60144280
 H      1.02567803     -1.60760001      1.25059610
 H      2.85241503      0.01079339     -0.41026508
 H      3.18859825     -1.46463627      0.19403077
 H      2.98033713     -0.66358927      2.44386877
 H      2.68656089      0.95476598      1.77791308
 H      4.92566597      0.91301610      0.67678806
 H      5.00585539      0.23992138      3.65876279
 H      5.71591151      1.67073763      2.88725754
 H      7.38005037      0.20973571      1.71529718
 H      7.12556678     -0.92158267      3.05415235
 H      5.95611488     -1.35120655      0.38875958
 H      5.17047243     -1.90436921      1.88796321
