21

 C      1.34121916      0.06538907      1.85713979
 N     -0.01038280     -0.01919694      1.24133024
 C     -0.73034249      1.27423829      1.36411363
 C      0.08105675     -0.56560229     -0.16458997
 C     -1.17854768     -0.75493585     -1.00998517
 C     -0.28237967     -0.43825121     -2.22858212
 C      0.70706272      0.27401593     -1.27814841
 H      1.24619197      0.39457354      2.89049692
 H      1.93134458      0.78410875      1.29144814
 H      1.81304011     -0.91483043      1.81879875
 H     -0.54590258     -0.70853947      1.77247716
 H     -0.16732894      2.04411182      0.84205374
 H     -0.80446744      1.52922312      2.42004237
 H     -1.72576681      1.18146228      0.93838379
 H      0.61136586     -1.51419870     -0.05560762
 H     -1.91139224      0.03999518     -0.86322003
 H     -1.67968813     -1.72057876     -0.95870734
 H     -0.72230718      0.16068950     -3.02223545
 H      0.14975674     -1.34104533     -2.65973209
 H      1.77593148      0.16728064     -1.45611371
 H      0.45727895      1.33346014     -1.19616732
