21

 C      1.47060291     -0.62849029      1.22987862
 N      0.93005828      0.01318582      0.00026012
 C      1.47267526     -0.62379973     -1.23072936
 C     -0.56447561      0.11278868     -0.00010545
 C     -1.28419573     -1.20235247      0.00254670
 C     -1.10108977      1.28538150     -0.75210342
 C     -1.10087134      1.28636851      0.75025278
 H      1.03853791     -0.14003688      2.10095362
 H      2.55416406     -0.52221523      1.23384962
 H      1.20763586     -1.68337556      1.22237537
 H      1.26266927      0.97865996      0.00275214
 H      1.20693988     -1.67791336     -1.22850176
 H      2.55649538     -0.52014598     -1.23098695
 H      1.04423864     -0.13009138     -2.10048538
 H     -2.35632921     -1.00546210     -0.00480805
 H     -1.07461484     -1.79242270      0.89687586
 H     -1.06491211     -1.80216795     -0.88288602
 H     -2.03614940      1.14847351     -1.27938362
 H     -0.40911253      1.95558199     -1.25145503
 H     -0.40911354      1.95764473      1.24869445
 H     -2.03577652      1.14978298      1.27777093
