21

 C      0.95334107      1.13166905     -2.49586475
 N      2.43855778      1.12719738     -2.49914338
 C      3.07627097      0.46231135     -1.30603556
 C      4.56771058      0.55278193     -1.39240643
 C      5.20855319     -0.25609868     -2.49253091
 C      5.18962360      1.86818941     -0.98756510
 C      5.29080782      0.68253054     -0.08412488
 H      0.59253485      1.62923819     -3.39434732
 H      0.60769445      1.66191238     -1.61065082
 H      0.60112807      0.10226695     -2.47193996
 H      2.79687122      2.08389104     -2.54485459
 H      2.78153263      0.66389265     -3.34271641
 H      2.71681781     -0.56962900     -1.30190600
 H      2.68385916      0.97436599     -0.42620974
 H      4.91801778      0.07614586     -3.49673629
 H      4.96376280     -1.31772630     -2.39998813
 H      6.29428485     -0.16506858     -2.44891218
 H      4.54790992      2.68367608     -0.66925115
 H      6.07560561      2.18455371     -1.52327203
 H      6.24595144      0.17956266     -0.00472230
 H      4.71329064      0.68870789      0.83226304
