21

C       1.42739903     -0.06359587      1.07757949
N      -0.05466872     -0.08080516      1.19335410
C      -0.51950364      0.79176267      2.30270362
C      -0.75211274      0.26156323     -0.10341970
C      -0.50030773     -0.73385369     -1.18532548
C      -0.76533238     -0.30463247     -2.60090336
C       0.63290589     -0.56757363     -2.16230970
H       1.85821908     -0.36842389      2.02983592
H       1.74110712      0.95130117      0.83733521
H       1.73083871     -0.74516407      0.28776818
H      -0.32724074     -1.03882034      1.42054813
H      -0.25034184      1.82082163      2.06898428
H      -0.03503198      0.48429586      3.22791477
H      -1.60014700      0.70403642      2.39953602
H      -1.81494524      0.31998247      0.14344248
H      -0.40928416      1.26092393     -0.38137752
H      -0.79925772     -1.75114180     -0.94525054
H      -1.05956499      0.72416876     -2.77067133
H      -1.24976287     -1.02026975     -3.25134667
H       1.12449351     -1.46419400     -2.51765525
H       1.28938541      0.28703753     -2.04556263
