20
2667.log
C      1.112476    0.000853    2.401863
N      0.000475    0.000067    1.477050
C      0.355653   -0.273365    0.093728
C      0.757890   -1.728632   -0.088002
C     -0.815360    0.077158   -0.784885
C     -1.037440    1.502109   -1.195858
C     -0.590923    0.485321   -2.204440
H      0.774215    0.359982    3.375737
H      1.959932    0.630142    2.078956
H      1.491453   -1.013192    2.547407
H     -0.470773    0.895331    1.511455
H      1.208937    0.358564   -0.227078
H     -0.057996   -2.384279    0.226501
H      1.643207   -1.982351    0.498415
H      0.984623   -1.929854   -1.137181
H     -1.706752   -0.509684   -0.582841
H     -0.307739    2.237475   -0.874864
H     -2.052718    1.874037   -1.254671
H      0.433171    0.544452   -2.554967
H     -1.301349    0.158633   -2.953336
