23

C       1.40153331     -0.76347480      1.19174778
N       0.92943798      0.03140807      0.02583790
C       1.47499745     -0.56017806     -1.22551996
C      -0.59999584      0.30607088      0.00862412
C      -0.91742860      1.07068153     -1.26858071
C      -1.36113645     -1.00529676      0.06802633
C      -0.90852735      1.18194310      1.21557251
H       1.00925411     -0.34605810      2.11393180
H       2.48962169     -0.73022344      1.21172735
H       1.07382586     -1.79352319      1.07403295
H       1.34396889      0.96057572      0.11637487
H       0.99507987     -1.51934626     -1.40506692
H       2.54539475     -0.71052317     -1.09506635
H       1.30212452      0.11021560     -2.06153649
H      -1.94682270      1.42467566     -1.20798287
H      -0.84391914      0.45169048     -2.16283907
H      -0.28269174      1.95363156     -1.38979717
H      -2.42576796     -0.77864611     -0.00583212
H      -1.21266523     -1.53614425      1.00922787
H      -1.12160688     -1.67097108     -0.76287102
H      -1.95423484      1.48565587      1.16275405
H      -0.30936886      2.09768818      1.22010917
H      -0.77797509      0.66631488      2.16693871
