21

 C      1.66489390      0.59309001     -0.35485608
 N      3.14436728      0.59678658     -0.48884520
 C      3.71035640      1.95056377     -0.25376053
 C      3.78422570     -0.44652978      0.39859844
 C      5.23813884     -0.63791891      0.09851670
 C      5.58315717     -1.13541395     -1.27133348
 C      6.13825972     -0.42859570      1.05316517
 H      1.24241054      1.33543661     -1.02993359
 H      1.41033626      0.84167597      0.67433521
 H      1.28521868     -0.39664057     -0.60255805
 H      3.36886152      0.33411296     -1.45035079
 H      3.44670979      2.26075807      0.75643041
 H      3.28576714      2.64309310     -0.97849544
 H      4.79266104      1.90601001     -0.35466973
 H      3.22180429     -1.36778687      0.22160332
 H      3.61387479     -0.12312014      1.42591113
 H      5.04768174     -2.06178421     -1.50394480
 H      6.65062994     -1.33338343     -1.35748179
 H      5.33763479     -0.41244641     -2.06013395
 H      7.19207761     -0.61643158      0.88396708
 H      5.85550860     -0.08553694      2.04233727
