21

C       1.79706634      0.50070941     -0.27409638
N       3.27653972      0.50440598     -0.40808550
C       3.84252884      1.85818317     -0.17300083
C       3.91639814     -0.53891038      0.47935814
C       5.37031128     -0.73029951      0.17927640
C       5.71532961     -1.22779455     -1.19057378
C       6.27043216     -0.52097630      1.13392487
H       1.37458298      1.24305601     -0.94917389
H       1.54250870      0.74929537      0.75509491
H       1.41739112     -0.48902117     -0.52179835
H       3.50103396      0.24173236     -1.36959109
H       3.57888223      2.16837747      0.83719011
H       3.41793958      2.55071250     -0.89773574
H       4.92483348      1.81362941     -0.27391003
H       3.35397673     -1.46016747      0.30236302
H       3.74604723     -0.21550074      1.50667083
H       5.17985418     -2.15416481     -1.42318510
H       6.78280238     -1.42576403     -1.27672209
H       5.46980723     -0.50482701     -1.97937425
H       7.32425005     -0.70881218      0.96472678
H       5.98768104     -0.17791754      2.12309697
