21

 C      1.02855437      0.13949634      0.10159754
 N      2.51509516      0.10781572      0.14862405
 C      3.02282816      0.77351513      1.37785223
 C      3.03249415     -1.29634053     -0.01752919
 C      4.52640951     -1.36464872     -0.28142573
 C      4.94183424     -2.78920410     -0.49663841
 C      5.41871642     -3.25734683     -1.63916349
 H      0.69206714     -0.29174660     -0.83932212
 H      0.68947204      1.17078217      0.18372173
 H      0.64417109     -0.44465031      0.93623064
 H      2.85808077      0.64287304     -0.65153901
 H      2.68832554      0.20039326      2.24135446
 H      2.61898973      1.78346690      1.42431306
 H      4.10848707      0.81207519      1.35190750
 H      2.74989315     -1.83633027      0.88866992
 H      2.48360605     -1.72783252     -0.85602152
 H      4.77727231     -0.77410854     -1.16932004
 H      5.08644766     -0.95102362      0.56331477
 H      4.84176491     -3.45278282      0.35924566
 H      5.54713600     -2.62276314     -2.51064988
 H      5.71337633     -4.29447915     -1.74194937
