21

C       1.19392457     -0.03132745      0.01620126
N       2.68046536     -0.06300807      0.06322777
C       3.18819836      0.60269134      1.29245595
C       3.19786435     -1.46716432     -0.10292547
C       4.69177971     -1.53547251     -0.36682200
C       5.10720444     -2.96002789     -0.58203468
C       5.58408662     -3.42817062     -1.72455976
H       0.85743734     -0.46257039     -0.92471840
H       0.85484224      0.99995838      0.09832545
H       0.80954129     -0.61547410      0.85083436
H       3.02345097      0.47204925     -0.73693529
H       2.85369574      0.02956947      2.15595818
H       2.78435993      1.61264311      1.33891678
H       4.27385727      0.64125140      1.26651123
H       2.91526335     -2.00715406      0.80327364
H       2.64897625     -1.89865631     -0.94141780
H       4.94264251     -0.94493233     -1.25471631
H       5.25181786     -1.12184741      0.47791850
H       5.00713511     -3.62360661      0.27384939
H       5.71250620     -2.79358693     -2.59604615
H       5.87874653     -4.46530294     -1.82734564
