19

C       1.21114433     -0.06440267     -0.08154810
N       2.66748172     -0.22550562      0.15982293
C       3.14489454      0.14486733      1.57247929
C       2.56759156     -0.81758234      2.55704895
C       1.70609491     -0.46774059      3.50093543
C       4.64056137      0.14979436      1.55715047
C       5.36064885      1.26039036      1.62702470
H       0.98163452     -0.38457271     -1.09641513
H       0.95195114      0.98476040      0.04624495
H       0.67052293     -0.67169298      0.64062714
H       3.20141842      0.34490937     -0.49923731
H       2.94040629     -1.19364915     -0.02214610
H       2.75835401      1.15249561      1.74034204
H       2.94153437     -1.83914754      2.50781592
H       1.34266762      0.55047241      3.59857411
H       1.34898101     -1.18619249      4.22874046
H       5.12935596     -0.82182804      1.52140616
H       4.90056380      2.24107672      1.70064626
H       6.44330779      1.22739099      1.63486297
