17

 C      0.90777056      0.10599003      0.05979988
 N      2.37861067      0.04124994     -0.13470286
 C      2.91411867     -1.32081499     -0.59482452
 C      2.43219369     -1.62363292     -1.98001002
 C      1.59544268     -2.61550746     -2.24490926
 C      4.35987663     -1.26206569     -0.49354285
 C      5.55436409     -1.19839391     -0.41941738
 H      0.63528779      1.12095319      0.34351452
 H      0.63042753     -0.58980455      0.84943297
 H      0.42133515     -0.17179744     -0.87229055
 H      2.67456942      0.73589221     -0.82444900
 H      2.86317105      0.28483525      0.73213613
 H      2.50474910     -2.04250723      0.11821682
 H      2.85825869     -1.01910827     -2.77698462
 H      1.19708108     -3.25736302     -1.46537214
 H      1.29562817     -2.83666162     -3.26208354
 H      6.61954348     -1.15567876     -0.35522419
