16

N       0.79762555     -0.91930162     -1.98631000
C       1.84222020     -1.37214719     -1.83905627
C       3.17698454     -1.89171396     -1.60769505
N       3.88171959     -1.04177924     -0.59022501
C       5.26888278     -1.47614437     -0.31438952
C       6.35150696     -0.98411027     -1.21169055
C       6.23578206     -0.46157800      0.18811261
H       3.77246265     -1.87855851     -2.52210630
H       3.13961643     -2.91373762     -1.22598006
H       3.33804360     -1.03775769      0.27866039
H       3.88746462     -0.07143961     -0.91779616
H       5.28678743     -2.48818618      0.07032930
H       6.08987699     -0.30811527     -2.01896904
H       7.14334698     -1.68033127     -1.45434562
H       5.89768904      0.56092577      0.31665539
H       6.94232429     -0.79202954      0.93796246
