13

 N      1.78748464     -1.25588358     -0.92231540
 C      2.81671499     -0.75544103     -0.83150303
 C      4.11183931     -0.13157134     -0.64521082
 N      4.46081566     -0.15916395      0.82088882
 C      5.78400399      0.47314180      1.15431617
 C      6.84985957     -0.23266141      0.46949796
 N      7.65822687     -0.81883948     -0.09703969
 H      4.09835924      0.91121015     -0.97039051
 H      4.89542180     -0.66732189     -1.18671484
 H      4.45907731     -1.13434970      1.13968931
 H      3.72165838      0.31526562      1.34944427
 H      5.74739464      1.52152148      0.84933526
 H      5.91616810      0.42438268      2.23790119
