12

N       2.54585168     -0.62315933      1.12722533
C       2.43651213      0.00037349     -0.01972051
N       1.20687937     -0.15066388      0.51142286
C       3.16480648      0.53910121     -1.10602485
C       2.42809525      0.99554008     -2.14988853
C       4.58029452      0.52191272     -1.02298039
C       5.77597866      0.50127222     -0.92845907
H       2.97476015     -0.14934886      1.92733946
H       0.82299610      0.72445803      0.88890877
H       2.90799572      1.40379568     -3.03191462
H       1.34494093      0.94264366     -2.13452279
H       6.84210731      0.48432355     -0.85988623
