15

 C     -0.44753217      1.34289091      0.00000000
 C     -0.56024994      0.19370704      1.01285700
 N     -1.52182593     -0.45987452     -0.00000000
 C     -0.56024994      0.19370704     -1.01285700
 C      0.68209655     -0.66648434     -0.73342700
 O      1.67451986      0.00739120     -0.00000000
 C      0.68209655     -0.66648434      0.73342700
 H     -1.32443745      1.99010933      0.00000000
 H      0.47161905      1.91803583      0.00000000
 H     -0.93959034      0.29815061      2.02568400
 H     -1.58351027     -1.48011162     -0.00000000
 H     -2.45627221     -0.04811684      0.00000000
 H     -0.93959034      0.29815061     -2.02568400
 H      0.99054392     -1.47751937     -1.38139800
 H      0.99054392     -1.47751937      1.38139800
