15

C      -0.97201074      0.00012422     -1.12855587
C      -0.78869566      0.97031978      0.04437288
O      -1.47621053     -0.00057024      0.87054939
C      -0.78843654     -0.97075811      0.04376393
C       0.65264160     -0.73333459      0.55975288
N       1.55376455      0.00022500     -0.37500834
C       0.65244586      0.73295733      0.56021288
H      -2.01392344      0.00008243     -1.43870492
H      -0.34071960      0.00048855     -2.02125134
H      -1.17880862      1.98307687      0.08545590
H      -1.17827908     -1.98364490      0.08421147
H       1.14502530     -1.37325354      1.27902711
H       1.34784794      0.00050945     -1.36934694
H       2.54645592      0.00028932     -0.15760539
H       1.14465874      1.37255630      1.27988851
