15

 C     -0.78498396      0.00021017     -1.32292712
 C     -0.60166888      0.97040572     -0.14999837
 O     -1.28918375     -0.00048430      0.67617814
 C     -0.60140976     -0.97067217     -0.15060732
 C      0.83966838     -0.73324865      0.36538163
 N      1.74079133      0.00031094     -0.56937959
 C      0.83947264      0.73304327      0.36584163
 H     -1.82689666      0.00016838     -1.63307617
 H     -0.15369282      0.00057450     -2.21562259
 H     -0.99178184      1.98316281     -0.10891535
 H     -0.99125230     -1.98355896     -0.11015978
 H      1.33205208     -1.37316760      1.08465586
 H      1.53487472      0.00059539     -1.56371819
 H      2.73348270      0.00037526     -0.35197664
 H      1.33168552      1.37264224      1.08551726
