15

 C     -0.17984051     -0.63223518     -1.77015309
 C      0.05547627     -1.11877445     -0.40158180
 C     -0.77541157     -0.53760060      0.69506192
 O      0.02996289     -0.02233940      1.72972171
 C     -0.49604045      0.89438613      0.78802309
 C      0.52211861      1.30303308     -0.24567290
 N      0.85176474      0.02396939     -0.93373892
 H      0.21346698     -1.19193017     -2.60947227
 H     -1.04083265     -0.00585042     -1.97091332
 H      0.60491959     -2.03933846     -0.23858698
 H     -1.72007410     -0.99865339      0.96367213
 H     -1.21469092      1.61886370      1.15362125
 H      0.13985426      2.02151754     -0.97112933
 H      1.43428176      1.69019004      0.21006601
 H      1.82109121     -0.14107623     -1.18196745
