17

 C      0.20359746     -0.78969998     -1.88117015
 N      1.25930667      0.10330742     -1.33993047
 C      0.01836973     -0.21394553     -0.54675769
 C     -0.89903069      0.93611492     -0.19057779
 C     -0.94275616      0.84949789      1.34992490
 O      0.16277862      0.03783482      1.71436535
 C      0.23446036     -0.96598155      0.74890885
 H     -0.32938689     -0.37494260     -2.72810583
 H      0.51464811     -1.82274970     -1.98331636
 H      1.35102328      1.02952161     -1.74344038
 H      2.13867422     -0.31135741     -1.04919674
 H     -0.50129941      1.89335103     -0.53399481
 H     -1.88178232      0.80236555     -0.64437174
 H     -1.87831351      0.38573980      1.68195174
 H     -0.83049453      1.81317045      1.84217400
 H      1.19322373     -1.48405093      0.82471435
 H     -0.57265934     -1.70736058      0.85518347
