16
4554.log
C      0.057225   -0.809372   -1.833313
N      1.230920    0.000342   -1.498163
C      0.150903   -0.127457   -0.531667
C     -0.719623    1.056252   -0.142010
C     -1.111420    0.702906    1.287000
O      0.000346   -0.000052    1.802506
C      0.428375   -0.865491    0.770410
H      0.245770   -1.876721   -1.901933
H     -0.653159   -0.426801   -2.560222
H      1.181293    0.900792   -1.964238
H     -1.577732    1.197028   -0.801487
H     -0.122171    1.973096   -0.146031
H     -2.008167    0.064229    1.298209
H     -1.292834    1.568086    1.925466
H     -0.137650   -1.808360    0.807994
H      1.489494   -1.078953    0.903504
