17

 C     -1.04529977      0.75062225      0.95825924
 C     -0.84058742      1.22603501     -0.47767624
 C     -0.07919311      0.21609904     -1.29761375
 N      1.36895122      0.04472981     -0.95612932
 C      0.39333673     -1.04571503     -0.69347019
 C      0.15184647     -1.24168581      0.78145609
 O      0.08018489      0.00756271      1.40979618
 H     -1.15906109      1.59293817      1.63841070
 H     -1.94251149      0.12588479      1.03655248
 H     -0.31271652      2.18325337     -0.51282915
 H     -1.80516435      1.39216374     -0.96236043
 H     -0.22657303      0.23296272     -2.37131221
 H      1.68560583      0.53284633     -0.11925319
 H      2.04865900     -0.05319957     -1.70130941
 H      0.52812569     -1.92069417     -1.31877068
 H     -0.77057193     -1.82191928      0.91310219
 H      0.97471341     -1.79688568      1.23639583
