16
4556.log
C     -1.091536    0.718244    0.946250
C     -0.785171    1.251446   -0.443796
C     -0.066937    0.227484   -1.295914
N      1.365298   -0.000103   -1.098646
C      0.423652   -1.020760   -0.669335
C      0.184457   -1.218613    0.803129
O     -0.000524   -0.000050    1.482934
H     -1.973299    0.060433    0.911206
H     -1.305165    1.529369    1.644734
H     -0.175279    2.159022   -0.375708
H     -1.721321    1.542437   -0.929036
H     -0.358563    0.198720   -2.341523
H      1.671793    0.525306   -0.282967
H      0.448845   -1.938707   -1.251302
H      1.045046   -1.705345    1.270835
H     -0.692776   -1.869442    0.945896
