17

C       0.12946215     -1.72711246     -0.82808914
C       0.44007428     -0.28923993     -0.77703707
N       0.26223524     -1.04859987      0.47779561
C       1.38835774     -1.32219121      1.39188218
C       1.42691238     -0.32133981      2.54719748
O       0.69150500     -1.23102155      3.37335872
C       0.99215657     -2.31424540      2.48595620
H       0.92355200     -2.43270893     -1.03724362
H      -0.87407093     -2.04952714     -1.07369831
H      -0.33725607      0.43407951     -0.98653960
H       1.45737517      0.03796274     -0.94857986
H      -0.61061887     -0.87878935      0.97290690
H       2.27980355     -1.49789281      0.79101514
H       0.92061772      0.63828618      2.41239646
H       2.44243736     -0.15131575      2.91747153
H       1.83966985     -2.91332286      2.83306119
H       0.13366274     -2.96535265      2.30015391
