16
4569.log
C      0.471441   -0.607469    0.064589
C      0.373661    0.450084    1.125585
C     -0.903246    0.837312    1.715345
O      0.001289    0.000097    2.416919
N      0.574507   -0.000028   -1.244392
C      0.246537   -0.852135   -2.365671
C     -0.673440    0.227049   -1.943528
H     -0.392051   -1.288326    0.154604
H      1.375531   -1.201236    0.236961
H      1.176162    1.185920    1.115364
H     -1.815485    0.350460    1.376668
H     -1.028717    1.835431    2.127332
H     -0.059210   -1.873703   -2.151511
H      0.865367   -0.733426   -3.248339
H     -1.592706   -0.074200   -1.446462
H     -0.739065    1.147743   -2.512533
