17

 C      0.51841775     -0.59859472      0.12621604
 C      0.37878980      0.48460751      1.15978845
 C     -0.92200660      0.82498457      1.73836097
 O      0.00156621     -0.00482750      2.41935677
 N      0.56647427     -0.04071156     -1.24307263
 C      0.21219717     -0.85837072     -2.42311817
 C     -0.66468959      0.24782241     -2.00868444
 H     -0.32618050     -1.28751755      0.17735655
 H      1.43987449     -1.16714673      0.27419077
 H      1.17474835      1.23035955      1.17519104
 H     -1.06608727      1.81151406      2.16841385
 H     -1.82150265      0.32343917      1.38766548
 H      1.32650383      0.61646752     -1.39267512
 H      0.86659537     -0.73266272     -3.27601813
 H     -0.06594734     -1.87564177     -2.17913610
 H     -1.57463448      0.02679057     -1.46645173
 H     -0.65079063      1.17849232     -2.56103882
