17

C       0.56706847     -0.60128010      0.44164449
C       0.42744052      0.48192213      1.47521690
C      -0.87335588      0.82229918      2.05378942
O       0.05021694     -0.00751288      2.73478522
N       0.61512499     -0.04339694     -0.92764418
C       0.26084789     -0.86105611     -2.10768972
C      -0.61603887      0.24513702     -1.69325599
H      -0.27752977     -1.29020294      0.49278500
H       1.48852522     -1.16983211      0.58961922
H       1.22339907      1.22767417      1.49061949
H      -1.01743655      1.80882867      2.48384230
H      -1.77285193      0.32075378      1.70309393
H       1.37515455      0.61378214     -1.07724667
H       0.91524609     -0.73534810     -2.96058968
H      -0.01729662     -1.87832716     -1.86370765
H      -1.52598376      0.02410518     -1.15102328
H      -0.60213991      1.17580693     -2.24561037
