16
4570.log
C     -0.606191   -0.584052   -1.765601
C     -0.140942   -1.108350   -0.463955
C     -0.853729   -0.723989    0.804265
O     -0.000319    0.000313    1.670185
C      0.737940    1.040693    1.046902
C      0.361397    1.252833   -0.406340
N      0.552726   -0.000221   -1.124028
H     -1.530754   -0.009980   -1.770928
H     -0.404922   -1.135228   -2.677594
H      0.428323   -2.033208   -0.436102
H     -1.165242   -1.608176    1.362723
H     -1.758321   -0.143661    0.578944
H      1.803410    0.787194    1.103611
H      0.576614    1.963295    1.614594
H      1.013171    2.017106   -0.837670
H     -0.669381    1.626487   -0.481402
