17

 C     -1.14186760     -0.59652078     -0.62923936
 C     -0.22933526     -1.03848722      0.53262066
 C      0.89123994     -1.08167819     -0.52083839
 N      0.11161581      0.00390247     -1.23685572
 C      0.42317164      1.32259289     -0.59892914
 C     -0.07045404      1.28815545      0.85190858
 O      0.01495350     -0.00003459      1.43566636
 H     -1.94843637      0.11377365     -0.46609006
 H     -1.47261437     -1.43077508     -1.24479965
 H     -0.47134731     -1.94133805      1.08549840
 H      0.90026823     -1.98453703     -1.12940139
 H      1.89286611     -0.77670396     -0.22479637
 H      0.18000751      0.04653944     -2.25266872
 H      1.50099156      1.46520552     -0.68295554
 H     -0.08482579      2.10962028     -1.15794088
 H      0.53340627      1.96045400      1.46061831
 H     -1.10453213      1.64258652      0.89971166
