19

C      -1.40482084      0.89667027      0.13729821
C      -1.40667614     -0.61145908     -0.00263167
N      -0.14602599     -1.24071329      0.54218568
C       1.05128777     -1.10274494     -0.35331006
C       1.79779378      0.19488099     -0.02445903
O       0.94816678      1.16437087      0.51644795
C      -0.12656227      1.57848191     -0.31646083
H      -2.25768703      1.27816238     -0.43104271
H      -1.58093186      1.16920082      1.18241992
H      -1.47430593     -0.93567437     -1.04230901
H      -2.23966838     -1.05194047      0.54715456
H       0.07128476     -0.79662726      1.43961175
H      -0.32367272     -2.22863883      0.72000930
H       1.69292993     -1.97209646     -0.20573093
H       0.67599964     -1.12708610     -1.37545790
H       2.30670180      0.54575222     -0.92960423
H       2.55866602      0.01093090      0.73625012
H      -0.22741356      2.65822336     -0.19893862
H       0.09828037      1.38266852     -1.37190463
