17

C      -1.65613659      1.03367872      0.53037325
C      -1.13379875     -0.10692720     -0.28321802
N      -0.28628807     -1.11095611      0.39671389
C       1.08142107     -1.16287986     -0.22167737
C       1.67375316      0.26534124     -0.19229861
O       0.76298101      1.15929943      0.41986427
C      -0.43113325      1.21928008     -0.28733562
H      -2.57647515      1.48317794      0.18074731
H      -1.53858124      1.01370490      1.60839747
H      -1.66436015     -0.50921879     -1.13561235
H      -0.19069973     -0.84960221      1.37979291
H      -0.72494355     -2.03205253      0.37453915
H       1.67772583     -1.87466633      0.34894060
H       0.95057903     -1.54525707     -1.23325071
H       1.92100675      0.59370398     -1.20592088
H       2.57986459      0.29360045      0.41038005
H      -0.43612112      1.84189779     -1.17741218
