17

 C      1.68576711     -0.17171942     -0.07642929
 C      0.72102837     -1.17424421      0.51501302
 O     -0.39626233     -1.40507345     -0.31901541
 C     -1.42539953     -0.53905655     -0.18768808
 C     -1.36331120      0.73789045      0.19231734
 C     -0.12321709      1.53738435      0.43041428
 N      0.97258266      1.08320681     -0.49709486
 H      2.44526466      0.10400533      0.65689012
 H      2.17971268     -0.56430047     -0.96611749
 H      1.24283184     -2.12699383      0.61789872
 H      0.37988607     -0.86916211      1.50856258
 H     -2.36894398     -0.99854547     -0.45898540
 H     -2.29920801      1.27576336      0.26857174
 H     -0.31023943      2.58712249      0.20034909
 H      0.27651227      1.49097198      1.44665111
 H      0.53854272      0.92413292     -1.40982030
 H      1.65945436      1.82793231     -0.62460881
