16

C       1.36904005     -0.42136531     -0.08226537
C       0.35264146     -1.43922463      0.40018328
O      -0.70907310     -1.54797965     -0.53271531
N      -1.85570843     -0.82211360     -0.22027614
C      -1.71447508      0.38356729      0.14320918
C      -0.48580921      1.24485148      0.21753184
N       0.61413900      0.73570783     -0.65991200
H       2.00639817     -0.05035109      0.72163871
H       1.99557768     -0.81734923     -0.88214875
H       0.82122692     -2.42254129      0.46496531
H      -0.04330570     -1.18987968      1.38812756
H      -2.64981370      0.88273019      0.38390667
H      -0.74516042      2.24699914     -0.12917154
H      -0.09491143      1.33774603      1.23394939
H       0.19946784      0.42462052     -1.54298124
H       1.25959682      1.49500486     -0.88292616
