15

 C      1.59548646     -0.16070307     -0.42764431
 N      0.63722090     -0.16016442     -1.60606422
 C     -0.39937667      0.62284248     -0.74685788
 C     -1.48647403     -0.22243805     -0.21353347
 C     -1.15293917     -0.56453448      1.03601427
 O      0.02781552     -0.09315947      1.48143926
 C      0.61180098      0.64523701      0.42045037
 H      1.78593725     -1.17020839     -0.06925323
 H      2.52913533      0.33430247     -0.68516887
 H      0.98078050      0.33445635     -2.42898462
 H      0.30527537     -1.08155956     -1.89069322
 H     -0.67664810      1.54018324     -1.26459374
 H     -2.41916463     -0.44269683     -0.70880076
 H     -1.71003950     -1.14779876      1.75703776
 H      0.96713421      1.59852256      0.80430061
