14
4584.log
C      1.507600   -0.290699   -0.441707
N      0.671087   -0.000939   -1.624930
C     -0.380251    0.599204   -0.776868
C     -1.441964   -0.296931   -0.207806
C     -1.139783   -0.568034    1.059187
O      0.000584   -0.000933    1.530333
C      0.616261    0.625412    0.405595
H      2.554497    0.001091   -0.558240
H      1.461162   -1.321641   -0.075173
H      0.376687   -0.816965   -2.147784
H     -0.774807    1.534683   -1.185076
H     -2.332678   -0.626484   -0.721750
H     -1.679845   -1.162580    1.784140
H      1.045016    1.572404    0.726520
