16
4586.log
C      0.670894   -1.260704   -0.456068
N      0.914019   -0.000081   -1.199167
C     -0.104254    0.920203   -0.671403
C      0.293981    1.222529    0.768283
O      0.000434   -0.000166    1.460325
C     -0.495623   -0.892222    0.463792
C     -1.323950    0.024345   -0.426037
H      1.544278   -1.546100    0.134948
H      0.417731   -2.091326   -1.122835
H      0.753712   -0.145876   -2.187432
H     -0.229213    1.799684   -1.301634
H     -0.291000    2.038404    1.206397
H      1.359824    1.451078    0.847401
H     -0.991418   -1.727229    0.956181
H     -2.142458    0.501129    0.115476
H     -1.693073   -0.450380   -1.337180
