17

 C      0.66215521     -1.30811824     -0.43901494
 N      0.91230980     -0.00471078     -1.20019759
 C     -0.13023356      0.96279599     -0.65603687
 C      0.28024733      1.23697797      0.78110762
 O      0.02822634     -0.00428768      1.44162080
 C     -0.49260341     -0.88839596      0.46407898
 C     -1.30460072      0.01964268     -0.45183300
 H      1.55857830     -1.57774409      0.11486031
 H      0.40781101     -2.09003172     -1.15321925
 H      0.79331577     -0.13728396     -2.20397702
 H      1.85855377      0.34558744     -1.05152583
 H     -0.23140169      1.82413749     -1.31229036
 H      1.33415298      1.51651341      0.88842254
 H     -0.32987970      2.03359103      1.21444295
 H     -1.00231203     -1.71688495      0.94970808
 H     -2.13202025      0.50351779      0.06455494
 H     -1.66748076     -0.45608774     -1.36456315
