17

C      -0.76076052     -0.08475105     -1.55711681
N       0.78006546      0.02111010     -1.51727689
C       0.64401045     -0.31925570     -0.03293349
C       1.17981431      0.17584688      1.28463322
O      -0.00826877     -0.02475261      2.06257724
C      -1.22813469     -0.14044360      1.28008204
C      -0.72482766      0.29829472     -0.06947089
H      -1.01796510     -1.12135394     -1.77000126
H      -1.21125247      0.59416971     -2.27704533
H       1.32149317     -0.61508406     -2.10187744
H       1.09154116      0.97834625     -1.68646959
H       0.57070034     -1.40943352     -0.02348068
H       1.97593045     -0.42544426      1.72264860
H       1.47532871      1.23065912      1.26480851
H      -1.57863487     -1.17599977      1.30177987
H      -1.97719826      0.51160568      1.72636977
H      -0.60074998      1.38837247     -0.03932316
