16
4588.log
C     -0.710843   -0.055582   -1.787748
N      0.795574    0.000111   -1.756316
C      0.649514   -0.304574   -0.295625
C      1.176871    0.173789    1.029999
O     -0.000042   -0.000247    1.851644
C     -1.211938   -0.156988    1.064739
C     -0.727510    0.294856   -0.284615
H     -1.024830   -1.078090   -2.009136
H     -1.191252    0.636032   -2.480625
H      1.065191    0.976271   -1.862375
H      0.570447   -1.397899   -0.241497
H      1.480530    1.228128    1.014799
H      1.973938   -0.426967    1.472239
H     -1.981586    0.463383    1.527667
H     -1.530356   -1.205309    1.084534
H     -0.599352    1.384304   -0.237033
