17

 C     -0.21122050     -0.89798325     -0.58413951
 O      1.06337910     -1.34378892     -1.01544406
 C      1.01583493     -0.31017917     -0.05323592
 C      1.58261399     -0.67823231      1.29119754
 C      0.78043345     -0.34631100      2.56334018
 N      1.03577465     -1.75016607      3.08064683
 C      1.50414739     -2.15687427      1.69110494
 H     -0.78609168     -1.61738618     -0.00304384
 H     -0.78600411     -0.34175582     -1.31844884
 H      1.31190800      0.66907434     -0.42321702
 H      2.60776228     -0.30965244      1.36853060
 H     -0.28711802     -0.22210819      2.38935492
 H      1.14755236      0.42047876      3.24149659
 H      1.78355246     -1.78384930      3.77202702
 H      0.23409135     -2.25241263      3.45928432
 H      2.41889446     -2.74338959      1.71308271
 H      0.71535909     -2.71420968      1.19084879
