17

C      -0.13399120     -0.88595699     -0.90342276
O       1.14060840     -1.33176266     -1.33472731
C       1.09306423     -0.29815291     -0.37251917
C       1.65984329     -0.66620605      0.97191429
C       0.85766275     -0.33428474      2.24405693
N       1.11300395     -1.73813981      2.76136358
C       1.58137669     -2.14484801      1.37182169
H      -0.70886238     -1.60535992     -0.32232709
H      -0.70877481     -0.32972956     -1.63773209
H       1.38913730      0.68110060     -0.74250027
H       2.68499158     -0.29762618      1.04924735
H      -0.20988872     -0.21008193      2.07007167
H       1.22478166      0.43250502      2.92221334
H       1.86078176     -1.77182304      3.45274377
H       0.31132065     -2.24038637      3.14000107
H       2.49612376     -2.73136333      1.39379946
H       0.79258839     -2.70218342      0.87156554
