17

 C     -0.04861154     -1.56340604      0.00000000
 C      0.41512412     -0.50876333      1.00134900
 C     -0.67500677      0.53074439      1.26416600
 N     -0.79058729      1.34021615      0.00000000
 C     -0.67500677      0.53074439     -1.26416600
 C      0.41512412     -0.50876333     -1.00134900
 O      1.29629515      0.05605275      0.00000000
 H     -1.09374313     -1.87278870      0.00000000
 H      0.60552400     -2.43274657      0.00000000
 H      0.93023408     -0.80559904      1.91383500
 H     -1.64190184      0.07819212      1.48510000
 H     -0.41349843      1.22720696      2.06133900
 H      0.00888040      1.97594736      0.00000000
 H     -1.63909860      1.90592508      0.00000000
 H     -0.41349843      1.22720696     -2.06133900
 H     -1.64190184      0.07819212     -1.48510000
 H      0.93023408     -0.80559904     -1.91383500
