16
4592.log
C     -0.068821   -1.553090    0.000000
C      0.425529   -0.504932    0.995308
C     -0.647761    0.560632    1.222646
N     -0.899967    1.318729    0.000000
C     -0.647761    0.560632   -1.222646
C      0.425529   -0.504932   -0.995308
O      1.350583   -0.000214   -0.000000
H     -1.130671   -1.806165    0.000000
H      0.543495   -2.454509    0.000000
H      0.924003   -0.827985    1.911800
H     -0.336774    1.263467    1.999028
H     -1.566374    0.075469    1.576945
H     -0.262765    2.101338    0.000000
H     -0.336774    1.263467   -1.999028
H     -1.566374    0.075469   -1.576945
H      0.924003   -0.827985   -1.911800
