17

C      -1.37731379      0.06941683      1.62997252
O      -0.00860490     -0.02446785      2.14061511
C       0.42825902      0.31136590      0.83244148
C       1.52244115     -0.24734884     -0.04355720
N       0.79841577     -0.05670982     -1.40234950
C      -0.73864545      0.17758039     -1.18377443
C      -0.81165075     -0.28386866      0.23865887
H      -1.75955672      1.08873368      1.73049635
H      -2.03819337     -0.65510728      2.09976798
H       0.43582015      1.41025490      0.73256343
H       2.46393491      0.29754631     -0.08737922
H       1.70124189     -1.31061941      0.10739649
H       0.94325136     -0.87638476     -1.98983501
H       1.20203899      0.73162390     -1.90638980
H      -0.92809732      1.23927813     -1.33441202
H      -1.26607300     -0.40897339     -1.93323505
H      -0.69351238     -1.37267902      0.25182199
