17

 C     -1.35801151      0.08240869      1.30707754
 O      0.01069738     -0.01147598      1.81772013
 C      0.44756130      0.32435776      0.50954650
 C      1.54174343     -0.23435698     -0.36645218
 N      0.81771805     -0.04371796     -1.72524448
 C     -0.71934317      0.19057225     -1.50666941
 C     -0.79234847     -0.27087680     -0.08423611
 H     -1.74025444      1.10172554      1.40760137
 H     -2.01889109     -0.64211542      1.77687300
 H      0.45512243      1.42324676      0.40966845
 H      2.48323719      0.31053818     -0.41027420
 H      1.72054417     -1.29762754     -0.21549849
 H      0.96255364     -0.86339290     -2.31272999
 H      1.22134127      0.74461576     -2.22928478
 H     -0.90879504      1.25226999     -1.65730700
 H     -1.24677072     -0.39598153     -2.25613003
 H     -0.67421010     -1.35968716     -0.07107299
