15

 C      0.66975136     -1.20534414      0.53544099
 O     -0.55880300     -1.48305929     -0.11528010
 C     -1.52045973     -0.54522405     -0.08617669
 C     -1.30178579      0.76363559      0.07640814
 C      0.07139283      1.23910846      0.22819263
 N      1.01864635      0.86465725     -0.92714637
 C      1.11528998      0.22199317      0.40707938
 H      1.40029919     -1.90096001      0.12176866
 H      0.56996533     -1.40507301      1.60869347
 H     -2.50259419     -0.96663586     -0.26517619
 H     -2.12021520      1.46745514      0.04832549
 H      0.25362324      2.25004311      0.57083883
 H      1.74755145      1.51165275     -1.20916866
 H      0.59876447      0.33424288     -1.68520835
 H      2.02732807      0.47674468      0.93601578
