16
4617.log
C     -0.876573    0.908328   -1.829343
C     -0.157711    0.394107   -0.623325
C     -0.495826    0.935521    0.744472
O      0.000338   -0.000003    1.680090
C      0.098785   -1.274761    1.071369
C      0.230100   -1.009700   -0.400497
N      1.253090   -0.000106   -0.693459
H     -1.959956    0.848970   -1.696938
H     -0.613792    0.330069   -2.718600
H     -0.620747    1.954442   -2.022106
H     -1.587841    1.047005    0.831804
H     -0.024886    1.899733    0.955895
H     -0.800289   -1.880154    1.261594
H      0.964525   -1.781363    1.505788
H      0.010572   -1.789440   -1.121457
H      1.525748   -0.075306   -1.669190
