17

C      -0.74949917      0.87943551     -1.60307857
C      -0.13723724      0.32176210     -0.36428771
C      -0.48192776      0.84102347      1.01788941
O       0.18950616     -0.03099368      1.90292140
C       0.14882385     -1.32832318      1.34146814
C       0.28538152     -1.07323997     -0.13829502
N       1.32436842     -0.03690598     -0.39821941
H      -0.40673938      0.36140335     -2.50053248
H      -0.53262965      1.94449611     -1.70241045
H      -1.83311327      0.75993886     -1.54583457
H      -1.57232164      0.79394947      1.13387168
H      -0.14631504      1.86059493      1.21325001
H       0.95215827     -1.92141138      1.77995055
H      -0.80917910     -1.83260341      1.51956054
H       0.21152220     -1.85599661     -0.88210781
H       1.79244534     -0.03982836     -1.29701947
H       1.89153519      0.24349335      0.39976220
