16
4652.log
C     -1.990786   -1.258366    0.871386
C     -0.894216   -0.407840    0.359091
C     -0.618563    0.020431   -0.872726
C      0.688547    0.757336   -0.860102
N      1.709669   -0.000029   -1.568574
C      0.863750    0.945398    0.661359
O     -0.000475    0.000689    1.303296
H     -2.646191   -1.570716    0.059630
H     -2.579197   -0.717569    1.617359
H     -1.583633   -2.146963    1.361389
H     -1.177592   -0.216681   -1.764627
H      0.625557    1.735932   -1.346565
H      1.798758   -0.927506   -1.170663
H      2.612982    0.455443   -1.511037
H      0.552081    1.947837    0.973351
H      1.885795    0.763471    0.999653
