19

C       0.89043600     -0.04004193     -1.36462555
C       2.27239856     -0.13778741     -0.78577472
C       2.40328260      0.08198944      0.70993631
C       1.72160811     -1.00033375      1.51581211
N       1.90248367     -0.74018154      2.99085884
C       3.32576499     -0.88806192     -1.47529482
O       3.28656000      0.52909315     -1.50871399
H       0.93848341     -0.11825101     -2.45035370
H       0.43329415      0.92165063     -1.11646518
H       0.23616196     -0.83802493     -1.00263987
H       1.97317382      1.06129752      0.95556015
H       3.47090784      0.12068888      0.94927846
H       2.14363400     -1.98734232      1.32130541
H       0.64563984     -1.03920336      1.34336221
H       2.89467791     -0.71948079      3.23772601
H       1.45104679     -1.45577452      3.56448555
H       1.50683412      0.16637283      3.25064286
H       4.15537050     -1.31512863     -0.91485483
H       3.09402431     -1.38338621     -2.41407066
