19

 C      1.29180903     -0.64436422     -0.49056997
 C      2.38719904      0.01616266      0.29936714
 C      1.98071038      1.25660616      1.09456857
 C      3.06170181      1.32898373      2.16004549
 N      4.18300855      2.24008190      1.70137306
 C      3.57474732     -0.12325696      2.25161920
 O      2.84645189     -0.86106129      1.31540249
 H      0.93313627      0.02134323     -1.27770194
 H      0.45553019     -0.90225270      0.16188573
 H      1.66098097     -1.55746673     -0.95779297
 H      3.22894258      0.26062626     -0.37670060
 H      1.02030953      1.07311760      1.58078043
 H      1.88105979      2.16709984      0.49775714
 H      2.73003869      1.73900515      3.11301301
 H      4.52357246      1.95033236      0.78091161
 H      4.97647714      2.21372547      2.34556187
 H      3.86699594      3.20952388      1.62931969
 H      4.65693335     -0.16559986      2.03833511
 H      3.41770089     -0.55214537      3.24239419
