17

 C      0.96340434      0.06519745     -0.04838964
 C      2.46346882      0.10040529      0.07769377
 C      3.06981071      1.25967323      0.84483533
 C      4.36398373      0.73033409      1.43367088
 O      5.26285415      1.34873110      1.90110654
 C      4.35036203     -0.80001491      1.33005704
 N      2.97095124     -1.11526828      0.86182509
 H      0.63292343      0.92696738     -0.63015704
 H      0.47777689      0.12399231      0.92985510
 H      0.61569241     -0.83052037     -0.56818070
 H      2.94013765      0.00881402     -0.90223725
 H      2.42113403      1.58181392      1.66861319
 H      3.26004630      2.13314360      0.22131711
 H      5.07122341     -1.12840761      0.57919137
 H      4.57048552     -1.28696344      2.27880171
 H      2.93058504     -1.96146620      0.29341513
 H      2.35077141     -1.27043534      1.65945123
