19

C      -1.00422574     -1.23198003     -0.51247177
C      -0.34093108      0.10586872     -0.64417423
C      -1.09098780      1.14152773     -1.42804671
N       1.14334480      0.05264723     -0.96951943
C       0.65983470      0.56636458      0.34046122
C       1.02756514     -0.21135100      1.57587953
O      -0.05809244     -0.03932538      2.43883695
H      -1.91705916     -1.10363233      0.07140506
H      -0.38873291     -1.96946157      0.00215303
H      -1.27896038     -1.62035398     -1.49449361
H      -0.53049685      2.07327980     -1.53070339
H      -2.01749563      1.37086273     -0.89810014
H      -1.35366894      0.76895294     -2.41970448
H       1.59057066     -0.85757411     -0.98041961
H       1.52101459      0.71232252     -1.64008981
H       0.77945952      1.64166382      0.42374358
H       1.19862007     -1.27008628      1.33187916
H       1.96238947      0.18821919      1.98604601
H       0.20158926     -0.24227572      3.34213721
