19

 C     -1.04683840     -1.28281915     -0.67979970
 C     -0.38354374      0.05502960     -0.81150217
 C     -1.13360046      1.09068861     -1.59537465
 N      1.10073214      0.00180811     -1.13684737
 C      0.61722205      0.51552546      0.17313328
 C      0.98495249     -0.26219012      1.40855159
 O     -0.10070509     -0.09016450      2.27150901
 H     -1.95967181     -1.15447145     -0.09592287
 H     -0.43134557     -2.02030069     -0.16517491
 H     -1.32157304     -1.67119310     -1.66182154
 H     -0.57310951      2.02244068     -1.69803133
 H     -2.06010829      1.32002361     -1.06542807
 H     -1.39628160      0.71811382     -2.58703242
 H      1.54795800     -0.90841323     -1.14774755
 H      1.47840193      0.66148340     -1.80741775
 H      0.73684687      1.59082470      0.25641564
 H      1.15600742     -1.32092540      1.16455122
 H      1.91977682      0.13738007      1.81871807
 H      0.15897661     -0.29311484      3.17480927
