17

 C      0.88359275     -0.16722088      0.05966596
 C      2.38595858     -0.11231970     -0.02301731
 C      3.13566290      1.01535831      0.70424482
 N      4.16516029      0.01092505      1.19128496
 C      3.19992190     -1.10816128      0.84406735
 C      3.79712439     -2.31188570      0.15132698
 O      3.14878218     -3.29426280     -0.02119077
 H      0.43926561      0.65090068     -0.51026058
 H      0.53742346     -0.09469682      1.09348283
 H      0.51165025     -1.10294379     -0.36106596
 H      2.71792890     -0.17268928     -1.06427739
 H      2.59846831      1.40450256      1.56842488
 H      3.57615822      1.82790788      0.13044251
 H      4.46198378      0.08253812      2.16403314
 H      5.00164682     -0.00598777      0.60458924
 H      2.66651631     -1.40780859      1.74730471
 H      4.83961095     -2.20843322     -0.22689296
