19

C       1.16845583     -0.17199826     -0.23331753
C       2.66597957     -0.14507758     -0.00326072
C       3.11951455      0.96370575      0.92424156
N       4.49230832      0.51874679      1.41235083
C       4.62432038     -0.96198637      1.13518500
C       3.22202746     -1.39407998      0.68608679
O       3.22444358     -2.56270817     -0.05829320
H       0.89984163     -1.03621268     -0.84174208
H       0.82588901      0.72385728     -0.75334802
H       0.62738275     -0.24771173      0.71355818
H       3.18359240     -0.03494198     -0.96748665
H       2.47530898      1.03597370      1.80195346
H       3.20745963      1.94820025      0.46816852
H       4.60161685      0.72093448      2.40481366
H       5.22737652      1.03714232      0.93429871
H       5.34520686     -1.09336195      0.32807728
H       4.99154039     -1.46930581      2.02477448
H       2.61066058     -1.61119367      1.56946731
H       3.58339614     -2.40854296     -0.93895943
