19

 C      1.11469873      0.03848771     -0.22693320
 C      2.61222247      0.06540839      0.00312361
 C      3.06575745      1.17419172      0.93062588
 N      4.43855122      0.72923276      1.41873515
 C      4.57056328     -0.75150040      1.14156932
 C      3.16827036     -1.18359401      0.69247111
 O      3.17068648     -2.35222220     -0.05190888
 H      0.84608453     -0.82572670     -0.83535775
 H      0.77213191      0.93434326     -0.74696369
 H      0.57362565     -0.03722576      0.71994251
 H      3.12983530      0.17554399     -0.96110233
 H      2.42155189      1.24645967      1.80833779
 H      3.15370253      2.15868622      0.47455284
 H      4.54785976      0.93142045      2.41119798
 H      5.17361942      1.24762829      0.94068303
 H      5.29144976     -0.88287598      0.33446160
 H      4.93778330     -1.25881984      2.03115880
 H      2.55690348     -1.40070770      1.57585164
 H      3.52963904     -2.19805699     -0.93257511
