19

C      -1.98099371     -0.12486815      0.23707080
C      -0.68614703     -0.81503515      0.63180196
C       0.16854394     -1.24218958     -0.55461925
N       0.78774945     -0.02958738     -1.18717356
C       1.57184776      0.76552674     -0.18392787
C       0.66401320      1.09782888      0.98166162
O       0.10630459     -0.06398221      1.53329756
H      -2.51488787      0.18189681      1.13672363
H      -2.62096045     -0.81506198     -0.31616535
H      -1.84481513      0.76861549     -0.37975495
H      -0.93456304     -1.72869265      1.17683543
H       0.99494295     -1.87470524     -0.22922478
H      -0.41176915     -1.76245235     -1.31720149
H       1.38789235     -0.30866256     -1.96424115
H       0.05018100      0.55774277     -1.58311278
H       2.40347493      0.13380867      0.13118737
H       1.95614396      1.65842276     -0.67844771
H      -0.10833044      1.81583956      0.67437279
H       1.25507484      1.57299712      1.76537932
