17

C      -2.33868465      0.11547676      0.85814023
C      -1.08778303     -0.19810961      0.56156281
C      -0.66753119     -0.77899986     -0.74925804
N       0.53182826     -0.02434516     -1.26423745
C       1.61471825      0.02026539     -0.22831805
C       1.04254801      0.60745236      1.04215261
O      -0.08399563     -0.11798172      1.48693260
H      -2.59552673      0.47304836      1.84705101
H      -3.13229039     -0.01651926      0.13464182
H      -0.34120709     -1.81606565     -0.63429620
H      -1.45672440     -0.72324245     -1.49684386
H       0.87752359     -0.45516645     -2.12326971
H       0.24755792      0.92972184     -1.50147787
H       1.94713389     -1.00784843     -0.07803542
H       2.44037210      0.61831652     -0.61570977
H       0.77710848      1.66366795      0.89632948
H       1.79197962      0.55360640      1.83161938
