16

C       1.29991606      0.38179018      0.01853816
C       2.75693711      0.28777527     -0.35740386
C       3.14612446     -0.96983343     -1.15848375
N       4.11354406     -0.44474963     -2.12955222
C       4.03890316      0.85931344     -2.18588645
N       3.18953462      1.33721783     -1.30894663
O       3.25654795      2.64104954     -0.93215559
H       1.09211114      1.31390540      0.54637546
H       1.04500141     -0.43383335      0.69739100
H       0.65533879      0.31258092     -0.86010891
H       3.39097176      0.39768762      0.52979427
H       3.59432841     -1.74708039     -0.54231804
H       2.28254799     -1.38108727     -1.68897922
H       4.59654021     -1.00506958     -2.81423898
H       4.60644755      1.49003916     -2.85884852
H       2.39945903      3.03692974     -1.14837215
