16

 C      1.05504250      0.09171705     -0.32879157
 C      2.46697909     -0.00880317      0.19490916
 C      2.82571441     -1.36109428      0.84732146
 N      3.61296737     -0.93306538      2.00877708
 O      3.90138039     -1.79337403      3.02176090
 C      3.40401914      0.33788263      2.26642366
 N      2.73711608      0.92448020      1.31094928
 H      0.90839330     -0.63495114     -1.12985686
 H      0.86130592      1.08120587     -0.74704473
 H      0.32667891     -0.10771270      0.45923056
 H      3.18604617      0.21763816     -0.59864631
 H      3.41193614     -2.00399596      0.19287761
 H      1.94473310     -1.90415900      1.20316299
 H      4.75163409     -2.20319305      2.80355151
 H      3.75015725      0.81308155      3.17599398
 H      2.58709898      1.92047651      1.26300062
