16
4754.log
C     -1.046087   -1.747911    0.040237
C     -0.580283   -0.326642    0.179104
C     -1.253557    0.582705    1.104836
O     -0.000476    0.000924    1.438906
C      0.158876    0.221095   -1.002059
C      1.090874    1.349072   -0.857993
N      1.599270   -0.000298   -1.105352
H     -1.533410   -2.084398    0.956028
H     -0.200300   -2.408162   -0.167419
H     -1.753529   -1.839718   -0.787747
H     -2.097642    0.224289    1.689809
H     -1.229976    1.652857    0.914339
H     -0.367269    0.098899   -1.945784
H      1.221290    1.761720    0.136764
H      1.219898    2.047126   -1.677768
H      1.934583   -0.382474   -0.224952
