19

C       1.04403152      0.36853187      0.43494711
C       2.53655088      0.18594676      0.29608874
C       3.45465551      1.17130241      1.03811278
O       4.13426003      0.08652674      1.71487231
C       3.23250701     -0.86278918      1.18611847
C       4.02781937     -1.97472518      0.53319628
N       3.10464388     -3.03973776      0.00817066
H       0.71808673      1.27332400     -0.08187209
H       0.75417771      0.46251693      1.48421707
H       0.48285036     -0.46605525      0.00342993
H       2.82127581      0.08676770     -0.75714741
H       2.93641848      1.81612663      1.75239663
H       4.14464840      1.76393374      0.43616522
H       2.57364575     -1.28532505      1.96458207
H       4.61399385     -1.60704361     -0.30937952
H       4.69494560     -2.44870025      1.25489003
H       2.46399296     -2.65522302     -0.69025446
H       2.53703291     -3.43499047      0.76180860
H       3.62026495     -3.80582287     -0.42930600
