17

 C      1.06726446     -0.08974692      0.27129177
 C      2.51210662     -0.00708320     -0.07513173
 C      3.33691192     -0.97888756     -0.48575648
 O      4.61874938     -0.61743281     -0.68967671
 C      4.74967205      0.70106775     -0.16402770
 C      3.33251815      1.24080222     -0.04750753
 N      2.96718243      2.11034750     -1.27576861
 H      0.70194510     -1.10939754      0.14863723
 H      0.43823265      0.54965920     -0.35847570
 H      0.88855768      0.20318897      1.30975734
 H      3.11730484     -2.02088010     -0.67888732
 H      5.42027072      1.27491128     -0.80717522
 H      5.19164136      0.63499248      0.83359718
 H      3.18298406      1.90181709      0.80727314
 H      3.12003935      1.57217766     -2.13160967
 H      3.51799701      2.97019797     -1.32601189
 H      1.97879374      2.36723909     -1.24692407
