19

C      -1.80869293     -0.86417103      0.35148488
C      -0.57219610     -0.00462017      0.39030463
C      -0.83322541      1.42061418     -0.05175220
O       0.04696348     -0.01977992      1.69889606
C       1.31517294     -0.40339375      1.18284409
C       0.70680744     -0.66171185     -0.18912352
N       1.36065114      0.03639667     -1.34130664
H      -2.56483522     -0.44517860      1.01759836
H      -1.59109345     -1.87988914      0.68543509
H      -2.22964735     -0.90272502     -0.65659571
H      -1.60273212      1.84757361      0.59316492
H      -1.20426165      1.47681750     -1.07966327
H       0.04614037      2.06421491      0.06355664
H       1.73654418     -1.27093359      1.69380561
H       2.04662297      0.41719323      1.20939082
H       0.59725214     -1.70750401     -0.47130423
H       1.36720267      1.04805991     -1.18457496
H       0.86209212     -0.13638209     -2.21714430
H       2.32711394     -0.27326312     -1.46778169
