19

 C     -1.83916644     -0.80683362      0.07182355
 C     -0.60266961      0.05271724      0.11064330
 C     -0.86369892      1.47795159     -0.33141353
 O      0.01648997      0.03755749      1.41923473
 C      1.28469943     -0.34605634      0.90318276
 C      0.67633393     -0.60437444     -0.46878485
 N      1.33017763      0.09373408     -1.62096797
 H     -2.59530873     -0.38784119      0.73793703
 H     -1.62156696     -1.82255173      0.40577376
 H     -2.26012086     -0.84538761     -0.93625704
 H     -1.63320563      1.90491102      0.31350359
 H     -1.23473516      1.53415491     -1.35932460
 H      0.01566686      2.12155232     -0.21610469
 H      1.70607067     -1.21359618      1.41414428
 H      2.01614946      0.47453064      0.92972949
 H      0.56677863     -1.65016660     -0.75096556
 H      1.33672916      1.10539732     -1.46423629
 H      0.83161861     -0.07904468     -2.49680563
 H      2.29664043     -0.21592571     -1.74744302
