19

C      -1.82116027      0.03272280     -0.70356262
C      -0.53424803      0.80367770     -0.51685849
C      -0.22008686      1.15261903      0.93242726
O       0.01794470      0.00042845      1.69559791
C       1.16853785     -0.67445800      1.26237881
C       0.99812506     -1.16916911     -0.15889831
N       0.64528613     -0.00332705     -1.03592431
H      -1.95135087     -0.30453072     -1.73517003
H      -2.65673147      0.69565747     -0.47521830
H      -1.88968522     -0.82248467     -0.03127213
H      -0.54439622      1.71557154     -1.11979887
H       0.64353087      1.83386239      0.98382500
H      -1.07645313      1.66689627      1.36937995
H       2.05244520     -0.02231210      1.34092822
H       1.32287552     -1.52730363      1.92375935
H       0.18215325     -1.88668656     -0.23253052
H       1.91006064     -1.62098420     -0.55143649
H       0.44244029     -0.32760151     -1.98285902
H       1.45772098      0.61360190     -1.10496842
