15
4803.log
C     -1.017195   -0.249102   -2.751292
C     -0.144648   -0.619784   -1.590128
N      1.156681    0.000034   -1.409008
C      0.069924    0.341929   -0.480810
C      0.247897   -0.106120    0.904234
N     -0.245667    0.576659    1.849588
O     -0.000276    0.000083    3.082587
H     -0.676383   -0.740030   -3.667118
H     -1.005315    0.831353   -2.920027
H     -2.052669   -0.550972   -2.575553
H     -0.145197   -1.677028   -1.333962
H      1.288035    0.753692   -2.076288
H     -0.411115    1.310549   -0.580723
H      0.806834   -1.024548    1.092301
H     -0.408615    0.617122    3.695774
