19

 C     -0.95969079     -1.53795987     -1.18100947
 C      0.16121907     -0.87616412     -0.44156522
 N      1.06100027      0.04940376     -1.26511223
 C      1.20713824      0.96014655     -0.06907741
 C     -0.05128570      0.30452346      0.55841454
 C     -1.30730408      1.10898394      0.32077691
 O     -0.01353601     -0.00550870      1.90173687
 H     -0.58838542     -2.25591766     -1.91532749
 H     -1.60767308     -0.81654071     -1.68230194
 H     -1.57034685     -2.09147855     -0.46429557
 H      0.83402691     -1.61086389      0.00940828
 H      0.54452066      0.49052058     -2.02546779
 H      1.91353184     -0.35325476     -1.65029916
 H      1.18666447      2.01740436     -0.32562503
 H      2.13146731      0.71022819      0.45132057
 H     -2.18583116      0.52212585      0.59043651
 H     -1.40987517      1.43220366     -0.71806520
 H     -1.28345956      1.99762886      0.95271709
 H      0.76930459     -0.51619213      2.13251668
