19

C      -0.88425560     -1.51269631     -0.95240158
C       0.23665426     -0.85090056     -0.21295733
N       1.13643546      0.07466732     -1.03650434
C       1.28257343      0.98541011      0.15953048
C       0.02414949      0.32978702      0.78702243
C      -1.23186889      1.13424750      0.54938480
O       0.06189918      0.01975486      2.13034476
H      -0.51295023     -2.23065410     -1.68671960
H      -1.53223789     -0.79127715     -1.45369405
H      -1.49491166     -2.06621499     -0.23568768
H       0.90946210     -1.58560033      0.23801617
H       0.61995585      0.51578414     -1.79685990
H       1.98896703     -0.32799120     -1.42169127
H       1.26209966      2.04266792     -0.09701714
H       2.20690250      0.73549175      0.67992846
H      -2.11039597      0.54738941      0.81904440
H      -1.33443998      1.45746722     -0.48945731
H      -1.20802437      2.02289242      1.18132498
H       0.84473978     -0.49092857      2.36112457
