17

C       1.08209086      0.41413092      0.30914208
C       2.32929924     -0.10812229     -0.36023680
N       2.12865760     -1.53599887     -0.84484946
C       3.09667308     -1.79141903     -1.96488653
C       3.18418430     -0.43487554     -2.60458199
O       1.90363738      0.16552803     -2.73091678
C       2.73216069      0.56460898     -1.64833958
H       1.26648463      1.42820085      0.66630851
H       0.79983473     -0.18933658      1.17422326
H       0.24609487      0.45418700     -0.39349510
H       3.17990900     -0.12729289      0.32731714
H       2.20952989     -2.21472557     -0.08921376
H       1.18012886     -1.59358370     -1.22065797
H       4.05356988     -2.10377392     -1.54419603
H       2.70239763     -2.57723727     -2.60958369
H       3.90564528     -0.24555601     -3.39053276
H       3.07784007      1.59202632     -1.63750911
