19

 C      1.12573092     -0.03669230     -0.09021546
 C      2.62285799     -0.09115982      0.04745822
 N      3.16381234      1.06659532      0.86166893
 C      4.42045692      0.59916746      1.59117091
 C      4.59881545     -0.84973073      1.17238584
 C      3.19201874     -1.30337683      0.79700413
 O      3.08695463     -2.48168511      0.07529742
 H      0.79817894     -0.93059621     -0.62354259
 H      0.78739698      0.83288806     -0.65695332
 H      0.63486615     -0.04090833      0.88779199
 H      3.11241935     -0.02667596     -0.92912126
 H      2.45542595      1.36086802      1.53427519
 H      3.35033844      1.87610675      0.27214915
 H      4.23186717      0.70741701      2.65804992
 H      5.24613603      1.25212328      1.31710783
 H      5.25490749     -0.92378188      0.29924846
 H      5.03518578     -1.44822220      1.97096366
 H      2.59788972     -1.45802808      1.70706379
 H      3.77738659     -2.53675522     -0.59382525
