19

C       1.16748862     -0.24581734     -0.10108173
C       2.66461569     -0.30028486      0.03659196
N       3.20557004      0.85747028      0.85080267
C       4.46221462      0.39004242      1.58030465
C       4.64057315     -1.05885578      1.16151958
C       3.23377644     -1.51250187      0.78613787
O       3.12871232     -2.69081015      0.06443116
H       0.83993664     -1.13972125     -0.63440886
H       0.82915468      0.62376302     -0.66781959
H       0.67662385     -0.25003337      0.87692572
H       3.15417705     -0.23580100     -0.93998752
H       2.49718365      1.15174298      1.52340893
H       3.39209614      1.66698171      0.26128289
H       4.27362487      0.49829197      2.64718366
H       5.28789373      1.04299823      1.30624157
H       5.29666519     -1.13290693      0.28838220
H       5.07694347     -1.65734725      1.96009740
H       2.63964741     -1.66715312      1.69619753
H       3.81914429     -2.74588026     -0.60469151
