17

C       0.95428114     -0.36225278      0.17729494
C       2.38469244     -0.40046586     -0.28719474
N       3.29619820      0.67305823      0.32823285
C       4.22598978     -0.38020748      0.95126317
C       5.65556112     -0.32072680      0.48642426
C       3.31444219     -1.44886579      0.33581819
O       3.32457617     -2.62753069      0.34003162
H       0.42803922      0.50861422     -0.21726560
H       0.87752179     -0.37486777      1.26706693
H       0.45359776     -1.25627615     -0.19925094
H       2.46912683     -0.35724216     -1.37573516
H       2.82101343      1.26753573      1.00610781
H       3.76113280      1.27075704     -0.35390384
H       4.14075777     -0.33066121      2.03947197
H       5.73259301     -0.33981044     -0.60323441
H       6.17151937     -1.20329442      0.86932101
H       6.16672712      0.56185818      0.87471666
