17

 C      0.95089285      0.03183296      0.17588618
 C      2.38130415     -0.00638012     -0.28860350
 N      3.29280991      1.06714397      0.32682410
 C      4.22260149      0.01387826      0.94985442
 C      5.65217283      0.07335894      0.48501551
 C      3.31105390     -1.05478005      0.33440943
 O      3.32118788     -2.23344495      0.33862286
 H      0.42465093      0.90269996     -0.21867436
 H      0.87413350      0.01921797      1.26565817
 H      0.45020947     -0.86219041     -0.20065970
 H      2.46573854      0.03684358     -1.37714392
 H      2.81762514      1.66162147      1.00469906
 H      3.75774451      1.66484278     -0.35531259
 H      4.13736948      0.06342453      2.03806322
 H      5.72920472      0.05427530     -0.60464316
 H      6.16813108     -0.80920868      0.86791226
 H      6.16333883      0.95594392      0.87330791
