16

C       1.23859751     -0.39037271      0.31753815
C       2.73006249     -0.32183180      0.14227569
N       3.07374879     -0.36681967     -1.32204055
C       3.53670268      0.70544635      0.96875647
N       4.19535477     -0.43200158      1.60433436
C       3.57819533     -1.39594676      0.87932435
O       3.64707083     -2.58073435      0.76844803
H       0.83358885     -1.30965419     -0.11309856
H       0.73562260      0.47101866     -0.13139811
H       1.00083937     -0.39823641      1.38167587
H       2.85783501     -1.30418457     -1.67963552
H       4.06949422     -0.20150501     -1.48716055
H       2.53850235      0.31293729     -1.86808190
H       2.92363836      1.31350580      1.63530124
H       4.21203258      1.35416043      0.40211028
H       4.86485370     -0.48558491      2.35882789
