16

C       1.34117640      0.40341581      0.54231476
C       2.82264335      0.24740360      0.31599839
N       3.69174805      1.23190792      0.97792175
C       4.44676484      0.34477331      1.66431146
O       5.43787503      0.36734873      2.32762998
C       3.55949264     -0.81657092      1.16448296
N       4.38355054     -1.84964656      0.47491306
H       0.98108874      1.31831418      0.06859573
H       1.10852256      0.45758704      1.60774405
H       0.79275970     -0.43163522      0.10115608
H       3.04770414      0.16250440     -0.75495169
H       3.74866846      2.23776478      0.90021030
H       2.95878720     -1.30845552      1.92796760
H       4.85575199     -1.46256780     -0.34641420
H       3.84279317     -2.66412984      0.17584319
H       5.11794634     -2.16793391      1.11883887
