15

 C      0.82756484     -0.07062486      0.07883820
 C      2.32972165     -0.01330382      0.00233046
 N      2.77317359     -0.05913832     -1.43514143
 C      3.08811681      0.97507460      0.89518384
 O      3.68117392     -0.13675148      1.62160100
 C      3.11345712     -1.06012411      0.81840238
 O      3.23715606     -2.23014700      0.76792753
 H      0.44221459     -0.97982312     -0.38910029
 H      0.36854569      0.80269086     -0.39295814
 H      0.51880950     -0.08589429      1.12468862
 H      2.54047119     -0.97688634     -1.83056182
 H      3.78396703      0.06754338     -1.53577578
 H      2.30353984      0.65395258     -2.00018072
 H      2.46175596      1.58365135      1.54509291
 H      3.86063683      1.58473489      0.42222124
