16
4845.log
C     -0.826131   -0.876931   -1.657630
C      0.060928   -0.200890   -0.622796
N      1.377298   -0.000277   -1.223743
C      0.054161   -0.972016    0.722031
O      0.000394    0.000100    1.774079
C     -0.398815    1.156371    1.187255
C     -0.450192    1.133838   -0.138813
H     -0.445681   -1.874344   -1.902970
H     -0.841133   -0.289147   -2.576759
H     -1.847221   -0.983854   -1.289491
H      1.780972   -0.883343   -1.516769
H      2.009062    0.428429   -0.558313
H      0.947564   -1.583007    0.862579
H     -0.835566   -1.604376    0.810362
H     -0.616136    1.961570    1.876358
H     -0.705220    1.959014   -0.785824
