17

C      -0.87290004     -0.72965125     -1.29907795
C      -0.09703022     -0.04634809     -0.19574700
N       1.35892452      0.14667222     -0.72965917
C      -0.02247075     -0.81209364      1.12675442
O       0.01633250      0.17391209      2.15821852
C      -0.43014298      1.31597887      1.60715573
C      -0.56646628      1.28891907      0.27844916
H      -0.47433257     -1.72155894     -1.52978791
H      -0.87749241     -0.13286411     -2.21451929
H      -1.90906225     -0.84824491     -0.98394804
H       1.78124641     -0.73393376     -1.03272667
H       1.94360903      0.56260690     -0.00226326
H       1.35497749      0.78790671     -1.52489689
H       0.84115683     -1.47145309      1.23559301
H      -0.93332542     -1.40346996      1.25027466
H      -0.62349288      2.12033752      2.30442987
H      -0.93239800      2.08661509     -0.35017620
