17

C      -2.30480903      0.12633448      1.46325928
C      -0.94420597      0.59635132      1.07028264
O       0.16769292      0.00460271      1.73900350
C       0.00805438     -0.27570083      0.37292426
C       1.10789868      0.28977939     -0.45448945
C       2.13354057     -0.56868342     -1.06666210
N       1.06318419      0.00085635     -1.92327822
H      -2.59475764      0.58260839      2.41144825
H      -2.32871061     -0.95771311      1.58256639
H      -3.04070800      0.41910970      0.71114489
H      -0.82872306      1.66993817      0.92150650
H      -0.28294861     -1.30090278      0.13156278
H       1.37871944      1.31815591     -0.24151541
H       2.06474780     -1.64239665     -0.94112504
H       3.11964070     -0.17250450     -1.27171984
H       0.33852167     -0.62417711     -2.26154285
H       1.30440158      0.74067827     -2.57372172
