17

 C     -2.45944999      0.11368048      1.27224944
 C     -1.09884693      0.58369732      0.87927280
 O      0.01305196     -0.00805129      1.54799366
 C     -0.14658658     -0.28835483      0.18191442
 C      0.95325772      0.27712539     -0.64549929
 C      1.97889961     -0.58133742     -1.25767195
 N      0.90854323     -0.01179765     -2.11428806
 H     -2.74939860      0.56995439      2.22043841
 H     -2.48335157     -0.97036711      1.39155655
 H     -3.19534896      0.40645570      0.52013505
 H     -0.98336402      1.65728417      0.73049666
 H     -0.43758957     -1.31355678     -0.05944707
 H      1.22407848      1.30550191     -0.43252525
 H      1.91010683     -1.65505065     -1.13213489
 H      2.96499974     -0.18515850     -1.46272969
 H      0.18388071     -0.63683111     -2.45255270
 H      1.14976062      0.72802427     -2.76473156
