19

 C      1.16740847      0.01144285      0.20433437
 C      2.54847930     -0.17964770     -0.33130000
 O      2.69103610     -0.75296746     -1.62669051
 C      3.12875110      0.57702201     -1.46000573
 C      2.39419781      1.64362517     -2.22095040
 C      4.63559700      0.63223390     -1.54889231
 N      5.16894921      1.89537224     -0.92309242
 H      0.77419705     -0.94980365      0.54099093
 H      0.48346799      0.40905960     -0.54355086
 H      1.18174557      0.68328710      1.06577625
 H      3.25764563     -0.59319942      0.38983029
 H      2.72157614      1.66624598     -3.26415344
 H      2.53525593      2.64084970     -1.78840884
 H      1.32433925      1.44879914     -2.21846310
 H      4.97546283      0.63025362     -2.58657017
 H      5.08769980     -0.20747564     -1.02239026
 H      4.79170316      2.72118419     -1.39332183
 H      6.18842730      1.94242611     -0.97633736
 H      4.89998882      1.95200935      0.06179724
