19

C       1.07652388      0.49324485      0.31732366
C       2.46897086      0.05324451     -0.04594050
O       3.45907883      1.05473207      0.21315446
C       4.03976499      0.29021091      1.27082120
C       3.17079633     -0.92830233      0.92161187
C       3.95706414     -2.02979363      0.26391807
N       3.02724118     -3.03455416     -0.37450757
H       0.79480219      1.35782434     -0.28586480
H       1.01643514      0.77788914      1.36978367
H       0.34912868     -0.30221358      0.12859887
H       2.50679499     -0.24522258     -1.10746052
H       3.83600357      0.71899205      2.25521733
H       5.12045110      0.16741399      1.15053393
H       2.54962793     -1.31193755      1.73562534
H       4.58849681     -1.64504130     -0.53921590
H       4.57838719     -2.58451120      0.96878196
H       2.41736795     -2.56948556     -1.05183284
H       2.42912240     -3.47839395      0.32576522
H       3.53758113     -3.77161874     -0.86513004
