19

 C      0.93875028      0.18505296      0.30076006
 C      2.33119726     -0.25494738     -0.06250410
 O      3.32130523      0.74654018      0.19659086
 C      3.90199139     -0.01798098      1.25425760
 C      3.03302273     -1.23649422      0.90504827
 C      3.81929054     -2.33798552      0.24735447
 N      2.88946758     -3.34274605     -0.39107117
 H      0.65702859      1.04963245     -0.30242840
 H      0.87866154      0.46969725      1.35322007
 H      0.21135508     -0.61040547      0.11203527
 H      2.36902139     -0.55341447     -1.12402412
 H      3.69822997      0.41080016      2.23865373
 H      4.98267750     -0.14077790      1.13397033
 H      2.41185433     -1.62012944      1.71906174
 H      4.45072321     -1.95323319     -0.55577950
 H      4.44061359     -2.89270309      0.95221836
 H      2.27959435     -2.87767745     -1.06839644
 H      2.29134880     -3.78658584      0.30920162
 H      3.39980753     -4.07981063     -0.88169364
