15

C       1.39980177      0.48633202      0.32175640
C       2.85777709      0.23030133      0.10131352
O       3.71402096      1.26992522      0.69382461
C       4.43255013      0.38426847      1.40329976
O       5.41728034      0.50242349      2.04053014
C       3.55817686     -0.80416810      0.99329363
N       4.35393474     -1.89946293      0.36975946
H       1.11056663      1.41384383     -0.17373371
H       1.16927436      0.57732793      1.38490227
H       0.80402364     -0.32410435     -0.10483315
H       3.10925299      0.14018463     -0.96033854
H       2.95157211     -1.22821401      1.79279371
H       4.85994947     -1.57342026     -0.45887594
H       3.77705011     -2.69812918      0.09337966
H       5.05817810     -2.23211308      1.03897605
