15

 C      0.67811619     -0.13665123     -0.75620952
 C      1.68129259      0.51507195     -0.19012261
 C      2.89037946      0.98152144     -0.90011297
 N      2.75512245      1.33107247     -2.33126934
 C      3.03911742      2.39634726     -1.33103802
 C      4.40784766      3.02333477     -1.38908540
 O      4.59509423      4.12148535     -0.97760713
 H     -0.17954276     -0.44587633     -0.17234479
 H      0.66329772     -0.41241820     -1.80699432
 H      1.68045574      0.73731931      0.87294355
 H      3.82107943      0.45190432     -0.70329716
 H      3.49097720      1.06370303     -2.97992354
 H      1.81872418      1.31599338     -2.72609708
 H      2.20879216      3.07466050     -1.16855289
 H      5.21845644      2.38431550     -1.80388686
