17

 C     -2.06020776      0.09227186     -1.78087203
 C     -0.55425559      0.26974119     -1.92713990
 C      0.16811324     -0.38786977     -0.79115164
 N      1.56856341      0.03481486     -0.51094260
 C      0.48307247      0.33257636      0.46363068
 C      0.53696565     -0.41425783      1.77055269
 O      0.00433156      0.01297135      2.74249680
 H     -2.56901919      0.56762409     -2.61897682
 H     -2.43259790      0.54763001     -0.86126555
 H     -2.33904376     -0.96313450     -1.77990439
 H     -0.20898682     -0.17520837     -2.86481055
 H     -0.29950086      1.33506262     -1.95570445
 H      0.06436653     -1.46677727     -0.70523884
 H      1.94642021      0.81438554     -1.04114759
 H      2.25788862     -0.66945412     -0.26146750
 H      0.23142421      1.38543742      0.53400917
 H      1.07056636     -1.39004784      1.75132413
