17

C      -1.91386147      0.08810259     -1.20702315
C      -0.40790930      0.26557192     -1.35329102
C       0.31445953     -0.39203904     -0.21730276
N       1.71490970      0.03064559      0.06290628
C       0.62941876      0.32840709      1.03747956
C       0.68331194     -0.41842710      2.34440157
O       0.15067785      0.00880208      3.31634568
H      -2.42267291      0.56345482     -2.04512794
H      -2.28625161      0.54346074     -0.28741667
H      -2.19269747     -0.96730377     -1.20605551
H      -0.06264053     -0.17937764     -2.29096167
H      -0.15315458      1.33089335     -1.38185557
H       0.21071282     -1.47094654     -0.13138996
H       2.09276650      0.81021627     -0.46729871
H       2.40423491     -0.67362339      0.31238138
H       0.37777050      1.38126815      1.10785805
H       1.21691265     -1.39421711      2.32517301
