19

C       1.36809870     -0.66544716      0.19163547
C       2.71594070     -0.01586533     -0.09407276
C       3.17278733     -0.32747748     -1.49138464
N       4.57273002      0.18179457     -1.86051078
C       4.83926863     -1.10171444     -2.61315960
C       3.64729682     -1.75120389     -1.87900337
O       2.80745978     -2.59958397     -2.55232215
H       1.06470707     -0.45792352      1.21749999
H       1.40931944     -1.74906084      0.06635635
H       0.59162827     -0.27646338     -0.47043203
H       2.64497970      1.06900925      0.03722364
H       3.46434470     -0.38124455      0.61971583
H       2.49004803      0.07041149     -2.24800415
H       4.62609214      1.04898663     -2.39184853
H       5.16148451      0.27916859     -1.03342830
H       5.84422479     -1.49077439     -2.46520253
H       4.64880506     -0.93464954     -3.67319404
H       3.98559252     -2.29159513     -0.99065577
H       2.46515338     -2.19879320     -3.35836005
