17

 C      3.18393251      0.19290748     -1.18173898
 C      2.32609004     -0.06535007      0.04979717
 C      3.05072588     -0.96009758      1.02938534
 N      2.22734075     -1.35009894      2.27441603
 C      2.37815391     -2.83046674      1.98766244
 C      3.14859407     -2.45982068      0.71612211
 O      3.61304586     -3.08417046     -0.16772812
 H      2.63940118      0.83001923     -1.87847189
 H      3.43514323     -0.73469123     -1.69754548
 H      4.11257606      0.70305065     -0.91805209
 H      1.37872559     -0.53300647     -0.24266764
 H      2.08727489      0.87984797      0.54878198
 H      4.00370155     -0.53223304      1.35259753
 H      1.26421387     -1.01880127      2.22350431
 H      2.62275487     -1.04485106      3.16219242
 H      2.96672682     -3.33469172      2.75422921
 H      1.41998916     -3.33166229      1.85267940
