20
5073.log
C     -2.483325    0.245306   -0.251574
C     -1.099334    0.772923   -0.583876
C      0.022654   -0.088420   -0.040586
C      1.385361    0.337043   -0.581263
N      1.505933    0.000211   -1.991232
O     -0.000373   -0.000310    1.371878
C      0.510340   -1.124750    2.031047
H     -3.261787    0.914594   -0.624781
H     -2.613765    0.146670    0.828007
H     -2.649899   -0.737511   -0.702624
H     -0.970984    1.779630   -0.169880
H     -0.960977    0.850296   -1.665592
H     -0.157569   -1.136917   -0.337338
H      2.170697   -0.103906    0.049834
H      1.469734    1.422890   -0.474936
H      1.624821   -0.998389   -2.111317
H      2.316597    0.445332   -2.400292
H      0.429536   -0.938695    3.102821
H      1.565837   -1.312170    1.792491
H     -0.064282   -2.028742    1.785092
