19

 C      0.70705371      0.14488171     -0.26684698
 C      2.22524262      0.11588195     -0.16276410
 C      2.92246156      0.10925197     -1.51316452
 N      2.62109104     -1.15132391     -2.28076742
 C      2.75526240      1.31556638      0.58855650
 C      3.22873528      1.21238773      1.96421034
 O      4.13872041      1.27214615      0.87354916
 H      0.28985345     -0.75001395     -0.74056689
 H      0.36302184      1.01900061     -0.82633145
 H      0.26141667      0.19320161      0.72747524
 H      2.54835699     -0.77486768      0.39198216
 H      2.59855912      0.93872130     -2.14491303
 H      4.00525753      0.15222046     -1.39091252
 H      1.61537550     -1.25400601     -2.43241936
 H      2.94089794     -1.97452832     -1.76551843
 H      3.08014910     -1.15680496     -3.19360546
 H      2.39176588      2.28206886      0.23695820
 H      3.18034848      0.25467829      2.47606180
 H      3.21252365      2.09166613      2.60050407
