19

C       0.99103958      0.36349937     -0.01976220
C       2.50922849      0.33449962      0.08432068
C       3.20644743      0.32786964     -1.26607974
N       2.90507691     -0.93270624     -2.03368264
C       3.03924827      1.53418405      0.83564128
C       3.51272116      1.43100540      2.21129512
O       4.42270628      1.49076382      1.12063394
H       0.57383932     -0.53139629     -0.49348211
H       0.64700771      1.23761827     -0.57924667
H       0.54540254      0.41181927      0.97456002
H       2.83234287     -0.55625001      0.63906694
H       2.88254499      1.15733897     -1.89782825
H       4.28924340      0.37083813     -1.14382774
H       1.89936137     -1.03538835     -2.18533458
H       3.22488381     -1.75591065     -1.51843365
H       3.36413497     -0.93818729     -2.94652068
H       2.67575175      2.50068653      0.48404298
H       3.46433436      0.47329596      2.72314658
H       3.49650952      2.31028380      2.84758885
