19

C       1.22653970      0.06266417      0.14565795
C       2.70654163     -0.01463713      0.33162043
C       3.48624057     -0.66557250     -0.78224717
N       4.30789291      0.35640461     -1.51782438
C       3.33353763      0.45677487      1.41277492
C       4.81490568      0.38733454      1.64480838
O       5.57212496      1.13201149      0.66701101
H       0.96041189      0.59819813     -0.77217229
H       0.74570859      0.56612758      0.98317403
H       0.79675221     -0.94032425      0.05787373
H       4.19552922     -1.40609013     -0.40662267
H       2.83153926     -1.15191921     -1.50444766
H       4.92735573      0.82630295     -0.79515956
H       3.71386508      1.06286325     -1.95098796
H       4.88183939     -0.06773527     -2.24699406
H       2.73450417      0.92564290      2.18757748
H       5.06794778      0.74329885      2.64321682
H       5.17922558     -0.64118584      1.57095032
H       5.69677989      2.03556899      0.97324398
