18

C      -0.93521966      0.02922592      1.27624094
C      -0.13643667      0.24289321     -0.00054661
C      -0.95744530      0.01670952     -1.25974693
N       0.42037430      1.64437151     -0.00895448
C       1.17136588     -0.59348386      0.00300254
N       1.06675498     -1.91506215     -0.01746036
O       2.23504833      0.01217452      0.02959231
H      -0.32876195      0.21101252      2.16690445
H      -1.29959435     -0.99658494      1.33003855
H      -1.80916907      0.68461186      1.29573886
H      -0.36494746      0.17616122     -2.16407372
H      -1.82369027      0.68224737     -1.27596566
H      -1.33732198     -1.00454594     -1.29081017
H       1.47094797      1.44276867      0.02705103
H       0.12958232      2.19301290      0.79761641
H       0.18958185      2.15656027     -0.85814967
H       1.91099649     -2.46713005     -0.01011041
H       0.18454716     -2.39470515     -0.04036710
