18

C       1.00727245     -0.45287330      0.08307786
C       2.50760937     -0.61660370      0.32875096
C       3.07932081      0.46822793      1.22469631
N       2.72282676      1.84672943      0.73823753
C       2.74602170     -1.93131153      1.09014473
N       2.96899505     -3.01577149      0.33106181
O       2.69171574     -1.94557705      2.30074693
H       0.61291323     -1.31359352     -0.45776529
H       0.77016527      0.42053110     -0.53373511
H       0.46370916     -0.38691172      1.02935917
H       3.04348271     -0.63758210     -0.62686555
H       4.16700685      0.42740303      1.28312789
H       2.67262270      0.36275933      2.23074335
H       3.11076247      2.03595722     -0.18806008
H       3.07516820      2.56271707      1.37630945
H       1.70784753      1.95330989      0.67580159
H       3.02236936     -2.98079252     -0.67085736
H       3.07589322     -3.90731237      0.78842524
