20
5174.log
C     -1.727211    0.731100   -1.691048
C     -0.274957    0.992444   -1.325987
C      0.514025   -0.249663   -0.902903
N      1.930933    0.000184   -0.676216
C     -0.048965   -0.912545    0.338867
O      0.000204    0.000026    1.409382
C     -0.412664   -0.567877    2.619748
H     -2.199939    1.632069   -2.088459
H     -2.311366    0.413881   -0.824238
H     -1.812310   -0.048833   -2.454097
H     -0.217496    1.731342   -0.520747
H      0.240976    1.430670   -2.188249
H      0.433988   -0.995545   -1.705438
H      2.033021    0.590376    0.142029
H      2.329298    0.506273   -1.457996
H      0.556532   -1.799915    0.571796
H     -1.084416   -1.242124    0.169429
H     -0.341957    0.201881    3.389022
H      0.224583   -1.416546    2.904748
H     -1.452451   -0.920789    2.565822
