21

C      -1.62053852      0.75913013     -1.78684888
C      -0.21581656      1.01099977     -1.26360197
C       0.49055512     -0.26557971     -0.83537212
N       1.91701561      0.08183536     -0.46898440
C      -0.07886600     -0.93064448      0.40907578
O       0.24804175     -0.09194349      1.48263517
C      -0.25756638     -0.53219241      2.73476790
H      -2.05189598      1.69168188     -2.15093253
H      -2.28620818      0.37802756     -1.01107268
H      -1.61930633      0.04927972     -2.61746277
H       0.37599580      1.48600709     -2.05543303
H      -0.24495744      1.70676451     -0.41919001
H       0.53363690     -0.97770087     -1.66235644
H       1.87205819      0.46202414      0.48881337
H       2.31540867      0.77544957     -1.10193736
H       2.52602522     -0.73697808     -0.45480699
H      -1.16160251     -1.04936652      0.29399283
H       0.35023420     -1.93448093      0.54993305
H       0.07308302      0.18579830      3.48223547
H       0.12966351     -1.52549741      2.98413367
H      -1.35086508     -0.56160712      2.71794094
