19

C      -1.58765242      0.90896407     -0.65923879
C      -0.34956085      0.04556291     -0.59747561
C       0.84321075      0.74430093     -1.22805844
N       2.07337801     -0.03652686     -0.87638345
O       0.08048997     -0.22095206      0.72905240
C      -0.69969156     -1.09769242      1.45462274
C      -0.72058096     -1.07575196      2.77222952
H      -2.42795085      0.39478025     -0.19185479
H      -1.85998852      1.12172405     -1.69538471
H      -1.42695855      1.85148895     -0.13240932
H      -0.53251508     -0.91060765     -1.11228249
H       0.97120635      1.73813639     -0.79800739
H       0.76283211      0.82095724     -2.31098881
H       1.94730365     -0.30965170      0.11191674
H       2.93184704      0.50304776     -0.98546181
H       2.15883452     -0.88998306     -1.43030652
H      -1.25103275     -1.81614462      0.85283417
H      -0.16955088     -0.33838440      3.34237127
H      -1.29869685     -1.81644354      3.30666401
