18
5195.log
C     -1.566190    0.937459   -0.948560
C     -0.283836    0.157105   -0.754082
C      0.920244    0.843415   -1.359558
N      2.093804   -0.000335   -1.240550
O      0.000386    0.000299    0.637467
C     -0.654883   -0.991492    1.273602
C     -0.714027   -1.087621    2.594990
H     -1.800796    1.031778   -2.011385
H     -1.474424    1.938404   -0.520583
H     -2.403102    0.435052   -0.459290
H     -0.369020   -0.842376   -1.201100
H      1.020393    1.832132   -0.883422
H      0.713428    1.014640   -2.420148
H      2.294218   -0.160655   -0.260571
H      2.904001    0.451739   -1.643569
H     -1.112772   -1.735878    0.622876
H     -0.261200   -0.344078    3.238622
H     -1.213385   -1.933255    3.045840
