18

C       1.07039605     -0.17509543     -0.11737632
C       2.57970689     -0.13243358     -0.07626015
C       3.16789110     -0.49501084      1.28541437
N       2.90158787      0.58878380      2.29119509
O       3.04973235     -1.07916989     -1.00291046
N       4.41908650     -0.88909521     -1.19991071
C       4.86415436     -1.64434233     -2.10772994
H       0.72339045      0.06025359     -1.12345328
H       0.61862590      0.56293875      0.55277218
H       0.70071158     -1.16747908      0.14872715
H       2.94705850      0.86313817     -0.36672197
H       4.24961670     -0.59917290      1.20412718
H       2.73345729     -1.41578455      1.67637786
H       3.30011686      1.47795832      1.97992746
H       3.31163299      0.36590359      3.20020777
H       1.89829660      0.73020323      2.42674031
H       5.92226133     -1.56083822     -2.32559604
H       4.23749525     -2.34420343     -2.65688792
