18

 C      0.84754318     -0.00921908      0.22561498
 C      2.35685402      0.03344277      0.26673115
 C      2.94503823     -0.32913448      1.62840567
 N      2.67873500      0.75466016      2.63418639
 O      2.82687948     -0.91329354     -0.65991916
 N      4.19623363     -0.72321886     -0.85691941
 C      4.64130149     -1.47846598     -1.76473864
 H      0.50053758      0.22612994     -0.78046198
 H      0.39577303      0.72881510      0.89576348
 H      0.47785871     -1.00160273      0.49171845
 H      2.72420563      1.02901452     -0.02373067
 H      4.02676383     -0.43329654      1.54711848
 H      2.51060442     -1.24990819      2.01936916
 H      3.07726399      1.64383468      2.32291876
 H      3.08878012      0.53177995      3.54319907
 H      1.67544373      0.89607959      2.76973161
 H      5.69940846     -1.39496187     -1.98260474
 H      4.01464238     -2.17832708     -2.31389662
