16
5214.log
C     -1.846525   -0.087588    0.426681
C     -0.407240    0.328070    0.188507
C      0.422343    0.276974    1.450768
O     -0.000001   -0.000544    2.538609
C      0.268763   -0.492707   -0.886388
C      0.183367   -0.084268   -2.300078
N      1.452817    0.000475   -1.581939
H     -2.298593    0.507358    1.220896
H     -1.898972   -1.133367    0.736554
H     -2.435421    0.031614   -0.484363
H     -0.367703    1.379563   -0.140079
H      1.498946    0.516555    1.307704
H      0.314518   -1.557989   -0.669862
H     -0.352417    0.834377   -2.521420
H      0.148627   -0.833146   -3.083299
H      1.642392    0.963352   -1.322083
