17

 C     -1.83004577     -0.06687382      0.40478321
 C     -0.38945595      0.36904761      0.19075904
 C      0.43231214      0.30514536      1.47777966
 O     -0.01130006     -0.06392861      2.51930993
 C      0.25082431     -0.48782151     -0.86767651
 C      0.16887843     -0.16659470     -2.30014244
 N      1.45231090      0.05143769     -1.58865288
 H     -2.28463502      0.54345348      1.18423621
 H     -1.88028365     -1.10458327      0.73827230
 H     -2.41675727      0.04166237     -0.50870832
 H     -0.35825047      1.41666283     -0.14650068
 H      1.49176379      0.63514917      1.38952059
 H      0.38653227     -1.53605972     -0.61713588
 H     -0.31915840      0.75037111     -2.60744012
 H      0.20324399     -0.95891183     -3.03678165
 H      2.22733525     -0.57205568     -1.78841183
 H      1.73223491      1.00897542     -1.40368615
