19

C      -0.73792998     -1.68348320      0.07473534
C      -0.45379069     -0.19853740      0.23703287
C      -1.71886200      0.63798398      0.13577118
O       0.24250540      0.05444256      1.45193758
C       0.52777399      0.26476269     -0.82632729
C       1.37282330      1.44940172     -0.62365114
N       1.95432895      0.09805885     -0.44665352
H      -1.22521276     -1.89125704     -0.87998897
H      -1.41088577     -2.02026110      0.86606642
H       0.17842911     -2.27503552      0.13758772
H      -2.19610894      0.51748184     -0.83907825
H      -1.50400700      1.69573259      0.29546979
H      -2.43608627      0.31419627      0.89293899
H      -0.28918229     -0.22521492      2.20312306
H       0.31448699     -0.03614608     -1.84532601
H       1.28924798      1.99610987      0.30626795
H       1.75308577      1.98772166     -1.48170495
H       2.62870859     -0.25020961     -1.11730665
H       2.07269347     -0.19610830      0.52337491
