17

C       1.01212866     -0.00291623     -0.05178457
C       2.52459989     -0.07570646     -0.02871849
C       3.06734887     -1.45837157     -0.05150532
O       2.43128967     -2.47661395     -0.15388085
C       4.57875226     -1.62230125      0.09536518
C       5.04007116     -2.47084765      1.21684284
N       4.94382395     -3.02892369     -0.14010227
H       0.69002811      1.03800099     -0.04510125
H       0.58017042     -0.50089573      0.81682954
H       0.60997780     -0.48120832     -0.94513673
H       2.95193809      0.42970374      0.84912350
H       2.97122957      0.44859048     -0.88652312
H       5.25479061     -0.88426418     -0.31899339
H       6.04941961     -2.35642058      1.59033536
H       4.30297294     -2.87121247      1.90223902
H       5.78600555     -3.26005479     -0.65526337
H       4.09805113     -3.58405305     -0.33220108
