19

 C      1.23800805      0.35897003      0.07936544
 C      2.75002015      0.21877393      0.02044319
 C      3.23504276     -0.36679092     -1.29591174
 O      2.92112891      0.43521032     -2.41656926
 C      4.73971641     -0.50212397     -1.33896259
 C      5.45792432     -0.63114252     -2.61495749
 N      5.42653940      0.67912614     -1.92534053
 H      0.92590266      0.71259350      1.06222155
 H      0.74024119     -0.59776264     -0.09861194
 H      0.86055177      1.08583737     -0.64508871
 H      3.22564842      1.19324724      0.18095053
 H      3.08948110     -0.43884104      0.82760659
 H      2.82449698     -1.37893644     -1.42145421
 H      1.97189430      0.58129168     -2.46336691
 H      5.22113170     -0.88277718     -0.44591809
 H      6.43282093     -1.10012328     -2.63219185
 H      4.88889858     -0.63798570     -3.53521464
 H      4.77782534      1.36093095     -2.31946978
 H      6.27125078      1.04434964     -1.50241892
