19

C       1.39296710      0.32672573     -0.09320976
C       2.90497920      0.18652963     -0.15213201
C       3.39000181     -0.39903523     -1.46848694
O       3.07608796      0.40296601     -2.58914446
C       4.89467546     -0.53436828     -1.51153779
C       5.61288337     -0.66338683     -2.78753269
N       5.58149845      0.64688183     -2.09791573
H       1.08086171      0.68034920      0.88964635
H       0.89520024     -0.63000694     -0.27118714
H       1.01551082      1.05359306     -0.81766391
H       3.38060747      1.16100294      0.00837533
H       3.24444015     -0.47108534      0.65503139
H       2.97945603     -1.41118075     -1.59402941
H       2.12685335      0.54904737     -2.63594211
H       5.37609075     -0.91502148     -0.61849329
H       6.58777998     -1.13236759     -2.80476705
H       5.04385763     -0.67023001     -3.70778984
H       4.93278439      1.32868664     -2.49204498
H       6.42620983      1.01210533     -1.67499412
