21

 C      0.96222790     -0.76588826     -0.61979692
 C      2.41398089     -0.52565696     -0.23763535
 C      2.67393222      0.93021062      0.05421397
 O      4.04569689      1.10061550      0.42962952
 C      4.41430138      2.42524768      0.68865289
 C      5.86380638      2.35702640      1.12199165
 N      6.56366336      1.45510204      0.14819923
 H      0.79038821     -1.82160584     -0.83131129
 H      0.68382394     -0.20038351     -1.51233516
 H      0.28444789     -0.47633705      0.18657752
 H      3.07317264     -0.85175005     -1.04883045
 H      2.67480128     -1.11548778      0.64600362
 H      2.04115008      1.28364947      0.87727484
 H      2.46600240      1.55228617     -0.82611703
 H      3.82233573      2.87316182      1.49549762
 H      4.29278743      3.05495372     -0.20566458
 H      6.35689953      3.32735732      1.13612179
 H      5.95321727      1.88298269      2.09901966
 H      6.76005980      1.92474957     -0.73670901
 H      5.88989055      0.69241009     -0.03765480
 H      7.43712436      1.07593181      0.51228248
