19

 C     -1.57234610     -0.01478465      2.32509614
 C     -1.34361775      0.00666018      0.85854725
 C     -2.28132314      0.03172392     -0.08155243
 O      0.00919660     -0.00314028      0.59267035
 C      0.39791917      0.01442728     -0.73822663
 C      1.91270954     -0.00206058     -0.69653959
 N      2.47106366      0.01475814     -2.09038008
 H     -2.63789875     -0.00723526      2.54491688
 H     -1.10844329      0.85443859      2.79791281
 H     -1.12684287     -0.90840066      2.76926602
 H     -3.32064197      0.03778247      0.21316457
 H     -2.07607511      0.04683526     -1.14330812
 H      0.03075006      0.91687313     -1.25174782
 H      0.01217158     -0.86300099     -1.28066743
 H      2.28474673     -0.90211579     -0.20751652
 H      2.30328158      0.87367411     -0.17866330
 H      2.15658592     -0.79825439     -2.62577379
 H      3.49303992      0.00395812     -2.08216029
 H      2.17380223      0.85111907     -2.59897471
