21

 C      0.90101685      0.23329694      0.07878674
 C      2.40882785      0.35252199     -0.07327179
 C      2.79501994      1.74476299     -0.55677612
 O      3.06255418      0.05073969      1.15406493
 C      2.90920702     -0.74427466     -1.02416160
 C      4.41994069     -0.79468482     -1.07846079
 N      4.87721448     -2.07666314     -1.72739736
 H      0.38954576      0.39202145     -0.87316077
 H      0.53286165      0.98893228      0.77718518
 H      0.62776190     -0.75024643      0.46570684
 H      2.37097640      1.95877430     -1.54056240
 H      3.87865331      1.87210786     -0.60275002
 H      2.41041264      2.49765310      0.13495125
 H      2.73092062      0.63513620      1.84233324
 H      2.52923529     -1.69779328     -0.63866167
 H      2.48421157     -0.58899507     -2.02003350
 H      4.85621699      0.01498219     -1.66298692
 H      4.84226926     -0.78230103     -0.07384200
 H      4.51525130     -2.16068022     -2.67960852
 H      4.53967389     -2.88462647     -1.19967637
 H      5.89631044     -2.13592262     -1.77264432
