21

C      -2.25489620      0.37642431      0.38699000
C      -0.77380330      0.45783881      0.04111617
C       0.05318075      0.93934458      1.22985420
O       0.19249312     -0.12609581      2.13804774
C      -0.29588304     -0.90657735     -0.46890843
C       1.19276346     -1.05568775     -0.67398866
N       1.70121674     -0.06701474     -1.69677176
H      -2.84014954     -0.00394502     -0.45292957
H      -2.64907280      1.35936675      0.64979857
H      -2.40811621     -0.29157993      1.23699869
H      -0.66135636      1.21342151     -0.75217033
H      -0.44474144      1.80287379      1.68352242
H       1.04815294      1.29415768      0.90221481
H       0.39355034      0.21213967      3.01397558
H      -0.83207093     -1.16676344     -1.38847407
H      -0.56894137     -1.66693336      0.26697887
H       1.45773269     -2.04473554     -1.04834571
H       1.74763389     -0.86531374      0.24496866
H       1.24225552     -0.20654183     -2.59924773
H       2.70919971     -0.14926377     -1.83879351
H       1.50024701      0.88835119     -1.39379995
