21

 C     -2.25183999      0.43065145      0.22565753
 C     -0.77074709      0.51206595     -0.12021630
 C      0.05623696      0.99357172      1.06852173
 O      0.19554933     -0.07186867      1.97671527
 C     -0.29282683     -0.85235021     -0.63024090
 C      1.19581967     -1.00146062     -0.83532113
 N      1.70427295     -0.01278761     -1.85810423
 H     -2.83709333      0.05028212     -0.61426204
 H     -2.64601659      1.41359389      0.48846610
 H     -2.40506000     -0.23735279      1.07566622
 H     -0.65830015      1.26764865     -0.91350280
 H     -0.44168523      1.85710093      1.52218995
 H      1.05120915      1.34838481      0.74088234
 H      0.39660655      0.26636681      2.85264311
 H     -0.82901472     -1.11253630     -1.54980654
 H     -0.56588516     -1.61270622      0.10564640
 H      1.46078890     -1.99050841     -1.20967818
 H      1.75069010     -0.81108661      0.08363619
 H      1.24531173     -0.15231470     -2.76058020
 H      2.71225592     -0.09503664     -2.00012598
 H      1.50330322      0.94257832     -1.55513242
