19

C       1.12580654      0.56208504     -0.43173762
C       2.61876138      0.63776720     -0.17255970
C       2.97716107      2.07954041      0.17662392
O       3.41766824      2.83748312     -0.62729525
N       3.06152160     -0.26137168      0.95783596
C       2.64807186     -1.68108847      0.77965064
C       4.53446914     -0.16797732      1.16918037
H       0.87784744      1.29617382     -1.20014299
H       0.54265088      0.80725646      0.46075751
H       0.81706734     -0.41385029     -0.80538906
H       3.19569874      0.33780088     -1.04962999
H       2.74066076      2.39639043      1.21927832
H       2.60544860      0.08134078      1.80757906
H       3.04476676     -2.04052174     -0.16872166
H       1.56408370     -1.75259280      0.78624799
H       3.06077954     -2.26671278      1.59930579
H       5.03343944     -0.55142538      0.28055446
H       4.80663455     -0.76443895      2.03798274
H       4.81828456      0.87083984      1.33070324
