17

 C     -1.17295157     -1.61304948     -1.74064929
 C     -0.52054369     -0.26547492     -1.92397161
 N      0.44143653      0.01745975     -0.82625186
 C      0.83748736      1.38037947     -0.45444962
 C     -0.01350956      0.59016373      0.46382009
 C      0.58277880      0.00234099      1.71535343
 O     -0.01605487     -0.00697252      2.74123685
 H     -1.86403900     -1.78419186     -2.56697803
 H     -1.74490363     -1.66669836     -0.81237884
 H     -0.44112170     -2.42378528     -1.75538132
 H      0.05010184     -0.20382326     -2.85284473
 H     -1.24589401      0.55001622     -1.91526752
 H      1.17638380     -0.68241099     -0.74139655
 H      0.38022403      2.15949478     -1.05102073
 H      1.89016009      1.50356966     -0.22653836
 H     -1.07686199      0.79782027      0.50212962
 H      1.61772416     -0.39429278      1.61565856
