18
5320.log
C      0.129564    2.163066   -0.808818
C      0.045991    0.656584   -1.032243
N      1.337343   -0.000131   -1.161570
C     -0.734068   -0.003263    0.088988
C     -0.837561   -1.531375    0.105519
C     -0.157454   -1.421377    1.469645
O     -0.000780    0.000142    1.332161
H      0.696924    2.642535   -1.610613
H      0.631326    2.376479    0.138943
H     -0.863111    2.621691   -0.778120
H     -0.518421    0.462766   -1.954296
H      1.867152    0.152663   -0.310106
H      1.867438    0.406065   -1.921964
H     -1.696359    0.510536    0.211227
H     -0.229462   -2.008829   -0.660698
H     -1.847326   -1.939296    0.103390
H      0.806856   -1.927223    1.573800
H     -0.789521   -1.670521    2.328705
