19

 C     -0.10364374      1.75687014     -1.09425692
 C      0.24934733      0.29488696     -0.96331046
 N      1.73091559      0.19384091     -0.65525343
 C     -0.41559313     -0.48584612      0.16796277
 C     -0.57515228     -1.95961942     -0.06164321
 C     -1.22488740      0.20647417      1.16912482
 O      0.14473563     -0.09771962      1.42548043
 H     -1.16210436      1.85585981     -1.33470196
 H      0.45782566      2.22668143     -1.90547798
 H      0.09242870      2.30658292     -0.17072049
 H      0.09826739     -0.22364192     -1.91199161
 H      1.83980304      0.47309944      0.32971772
 H      2.29271917      0.80195840     -1.25151215
 H      2.07869999     -0.76196667     -0.74582799
 H     -0.92387907     -2.44759569      0.84781561
 H      0.36674148     -2.43705076     -0.35221729
 H     -1.30160116     -2.14595262     -0.85597839
 H     -1.45733923      1.26127296      1.07355361
 H     -1.93352418     -0.37945839      1.74649806
