19

C       1.30934772     -0.03959670     -0.65801025
C       2.52051183     -0.12374575      0.23979121
N       2.16411204      0.41870776      1.61349692
C       3.04462084     -1.52560504      0.40964120
O       3.80534825     -1.96170139     -0.68509077
C       4.47880362     -1.81113748      0.56055914
C       4.98280757     -3.05489859      1.21504019
H       1.58486519     -0.42850771     -1.63900023
H       0.96481132      0.98828711     -0.79326859
H       0.48353780     -0.64888386     -0.27971051
H       3.32691056      0.51567410     -0.12607540
H       1.42063833     -0.13960080      2.03997997
H       1.82813829      1.38211502      1.55376268
H       2.97120250      0.39656960      2.24026617
H       2.31965950     -2.25200247      0.78663278
H       5.15536532     -0.95491043      0.57283357
H       4.24268604     -3.85430408      1.16100218
H       5.22838201     -2.86685908      2.26282828
H       5.89146728     -3.39518521      0.71511088
