19

 C      3.26914962      2.04981593     -0.35777588
 C      2.54982986      1.36534234     -1.49327415
 N      3.01682804     -0.05186765     -1.71998683
 C      2.07419885     -0.79454026     -2.60234677
 C      4.40883005     -0.12531198     -2.24695510
 C      4.96889587     -1.53771941     -2.18317940
 O      5.71342269     -1.95620896     -3.01027889
 H      2.80162646      3.02226007     -0.19547535
 H      4.32358411      2.23535129     -0.56456375
 H      3.17941427      1.49156688      0.57788523
 H      1.47984806      1.29428498     -1.29157323
 H      2.68185262      1.88389572     -2.44442313
 H      3.00964091     -0.50962139     -0.80429899
 H      2.02630427     -0.28187905     -3.56198401
 H      1.09027741     -0.81143408     -2.13736072
 H      2.43433115     -1.81234582     -2.74694053
 H      4.41469855      0.23859252     -3.27455233
 H      5.04425250      0.51888314     -1.63450102
 H      4.67252181     -2.14034623     -1.29467316
