18

 C      0.81086652     -0.08053946     -0.02904625
 C      2.31652442     -0.00697583     -0.09089310
 N      2.74500935      1.44389802     -0.05733013
 C      3.02539825     -0.70884607      1.05588307
 O      2.73313007     -2.06588907      0.91015206
 N      3.32150164     -2.75438730      1.97755594
 C      3.12248377     -3.99651531      1.88762739
 H      0.33928004      0.41550197     -0.88051458
 H      0.42590568      0.35218331      0.89891162
 H      0.51635002     -1.12938429     -0.04949820
 H      2.68952183     -0.39757205     -1.04094944
 H      2.44924097      1.88661744      0.81665544
 H      2.31984339      1.96660220     -0.82562200
 H      3.76044207      1.54114429     -0.12953110
 H      2.66298105     -0.33298069      2.02364915
 H      4.11117285     -0.54024052      1.00713847
 H      3.54455556     -4.60370801      2.67954791
 H      2.56429955     -4.45553841      1.07392126
