19

C      -1.78084031      0.13551858      2.53111882
C      -1.15193220      0.54392393      1.22809693
O       0.10861025     -0.11990634      1.10423431
C       0.80508489      0.21295090     -0.01295472
C       1.90054943     -0.70239063     -0.43386170
C       0.64024904     -0.65403301     -1.23646328
N       0.68604202     -0.04209822     -2.58668933
H      -2.74333940      0.63628335      2.64936838
H      -1.14310583      0.41406637      3.37096748
H      -1.94797982     -0.94207251      2.56291308
H      -1.79004986      0.26638817      0.37742766
H      -0.98792459      1.62878397      1.19091449
H       0.96051838      1.28189528     -0.18498009
H       2.05860095     -1.60131476      0.14853477
H       2.80341622     -0.25541657     -0.83540898
H      -0.04839541     -1.48750000     -1.19893970
H       1.27251538      0.79555944     -2.58888792
H      -0.24621430      0.23668802     -2.90344860
H       1.07619044     -0.68699167     -3.28029376
