18
5451.log
C     -1.943290    0.193326    2.416109
C     -1.290533    0.570899    1.111048
O      0.000311    0.000295    1.068460
C      0.682754    0.304853   -0.097059
C      1.723220   -0.668923   -0.531837
C      0.467077   -0.524383   -1.335691
N      0.534354   -0.001207   -2.667265
H     -2.944757    0.624630    2.478447
H     -1.355820    0.559498    3.260248
H     -2.028473   -0.891583    2.503633
H     -1.215868    1.664960    1.018691
H     -1.885092    0.211970    0.258865
H      0.887713    1.366619   -0.247216
H      1.837681   -1.563157    0.067294
H      2.645550   -0.277167   -0.946276
H     -0.244393   -1.337222   -1.217038
H      1.403415    0.489233   -2.828276
H     -0.224953    0.642005   -2.854003
