19

 C      1.01139969     -1.93494915     -0.43022946
 C      2.33462467     -1.74090375     -1.11593128
 O      3.28516104     -1.27788623     -0.14820695
 C      4.52113418     -0.98934926     -0.65648373
 C      5.41579056     -0.29191078      0.37596705
 N      6.53535789     -1.27263384      0.07770901
 C      5.56311198     -2.14212498     -0.69832065
 H      0.27178956     -2.28425279     -1.15258021
 H      0.65597960     -0.99697699     -0.00142237
 H      1.08794180     -2.67709993      0.36567158
 H      2.26175013     -0.99802315     -1.91997155
 H      2.69132793     -2.68253416     -1.55379899
 H      4.46704378     -0.45211208     -1.61181348
 H      5.05454716     -0.45172713      1.39025049
 H      5.70808559      0.74391264      0.22231520
 H      7.26676306     -0.87466565     -0.50883223
 H      6.98164971     -1.70420286      0.88540802
 H      5.97269986     -2.47350306     -1.65008122
 H      5.26561128     -2.98833079     -0.08146126
