19

C       1.08811122     -1.86668211     -0.36881397
C       2.41133620     -1.67263671     -1.05451579
O       3.36187257     -1.20961919     -0.08679146
C       4.59784571     -0.92108223     -0.59506824
C       5.49250209     -0.22364375      0.43738254
N       6.61206942     -1.20436681      0.13912450
C       5.63982351     -2.07385795     -0.63690516
H       0.34850109     -2.21598575     -1.09116472
H       0.73269113     -0.92870995      0.05999312
H       1.16465333     -2.60883289      0.42708707
H       2.33846166     -0.92975611     -1.85855606
H       2.76803946     -2.61426712     -1.49238350
H       4.54375531     -0.38384505     -1.55039799
H       5.13125869     -0.38346009      1.45166598
H       5.78479713      0.81217967      0.28373068
H       7.34347459     -0.80639862     -0.44741674
H       7.05836124     -1.63593583      0.94682351
H       6.04941139     -2.40523603     -1.58866573
H       5.34232281     -2.92006376     -0.02004577
