18
5463.log
C      0.679459    0.576510    2.856891
C     -0.153505   -0.351989    2.010783
O      0.000836   -0.000110    0.656801
C     -0.732932   -0.820392   -0.211550
C     -0.478677   -0.415383   -1.635942
C     -0.227272    0.989367   -1.996948
N      0.851781   -0.000351   -2.052107
H      0.573676    0.321506    3.913473
H      0.362879    1.612133    2.719080
H      1.734988    0.500679    2.588614
H     -1.215169   -0.285414    2.293314
H      0.156796   -1.397311    2.161025
H     -1.810429   -0.749643    0.006585
H     -0.440270   -1.873707   -0.070950
H     -0.989774   -1.051199   -2.354904
H     -0.209419    1.714302   -1.190837
H     -0.554605    1.366707   -2.959659
H      1.426921    0.107240   -1.221411
