19

 C      0.74757285      0.58296652      2.76840895
 C     -0.17409795     -0.31114209      1.98786533
 O      0.00518629     -0.05420147      0.58889217
 C     -0.79009802     -0.84715356     -0.23758367
 C     -0.49489375     -0.43037676     -1.65284617
 C     -0.25162338      0.98025616     -1.98708746
 N      0.89764395      0.05730321     -1.83972114
 H      0.61358459      0.40033793      3.83591860
 H      0.53118563      1.63526449      2.57686421
 H      1.79267006      0.38482479      2.52336903
 H     -1.22295882     -0.12199576      2.24407705
 H      0.03871132     -1.36951218      2.18038207
 H     -1.86311421     -0.70220992     -0.05047331
 H     -0.56757696     -1.91577543     -0.11144359
 H     -0.83557789     -1.08830310     -2.44352273
 H     -0.30333614      1.71990566     -1.19917796
 H     -0.41771380      1.32349709     -2.99956977
 H      1.40801481      0.13856082     -0.95962016
 H      1.43159725     -0.21451441     -2.65647701
