17

 C     -1.83338400     -0.87619328      2.01728730
 C     -0.60726033     -0.39753875      1.90489155
 O      0.03619847     -0.06086317      0.73849678
 C     -0.66938230     -0.25160729     -0.45514653
 C      0.23196374      0.21466901     -1.56312842
 C      1.12205180      1.37132701     -1.39048003
 N      1.68098760      0.00092348     -1.30199066
 H     -2.21128758     -1.09487043      3.00624122
 H     -2.49491227     -1.06528709      1.18230662
 H      0.04473296     -0.21051594      2.74829030
 H     -1.59330756      0.33922504     -0.48264314
 H     -0.93092321     -1.30723637     -0.59723754
 H     -0.06640994     -0.04829337     -2.57138420
 H      1.12469241      1.89256657     -0.44215313
 H      1.44760255      1.92741233     -2.25962753
 H      2.28555362     -0.34086764     -2.04006393
 H      1.88806526     -0.33001483     -0.36090068
