16
5464.log
C     -1.857689   -0.943586    2.017942
C     -0.661894   -0.370715    1.928916
O     -0.000366    0.000059    0.816212
C     -0.633154   -0.251125   -0.419583
C      0.258780    0.205976   -1.536977
C      1.159318    1.360096   -1.384169
N      1.696180    0.000012   -1.472411
H     -2.246653   -1.177868    2.998889
H     -2.469669   -1.190972    1.161715
H     -0.073232   -0.134750    2.808973
H     -1.594836    0.276938   -0.462709
H     -0.835081   -1.326887   -0.512941
H     -0.171711    0.012038   -2.516476
H      1.179603    1.853716   -0.418933
H      1.372369    1.994648   -2.237395
H      1.942755   -0.314967   -0.538746
