19

 C      3.95401851     -1.12732256     -0.34611445
 C      2.76101732     -0.21117891     -0.18674744
 O      1.91217516     -0.60118960      0.87327589
 C      3.08085796      1.24701306     -0.02344772
 C      4.26241516      1.83780431     -0.18528934
 C      4.43184481      3.30631807     -0.04456179
 N      5.22919310      3.63160063      1.21196684
 H      4.53638479     -0.88294467     -1.23692822
 H      3.60674968     -2.15552163     -0.44962009
 H      4.61583390     -1.07549607      0.52461192
 H      2.13782438     -0.28512540     -1.08794103
 H      2.45111340     -0.86111629      1.62648316
 H      2.21247732      1.84805496      0.24495495
 H      5.13784413      1.26455343     -0.48007074
 H      3.47793966      3.82257584      0.06195255
 H      4.99032725      3.75565626     -0.86807553
 H      4.74686479      3.26374856      2.03480983
 H      5.36160882      4.63794049      1.33575741
 H      6.15167087      3.19309994      1.17892530
