16
5518.log
C     -0.766240   -1.691012    0.923015
C     -0.032728   -0.434249    1.285233
O     -0.001263    0.000564    2.409782
C      0.729711    0.281317    0.182304
N      0.233320    0.000021   -1.143829
C     -0.759527    0.924213   -1.658232
C      0.626661    0.936483   -2.174192
H     -1.155258   -2.160390    1.824651
H     -0.108258   -2.373262    0.379412
H     -1.585271   -1.455483    0.238178
H      1.765136   -0.077464    0.247958
H      0.745692    1.353026    0.432726
H     -1.057898    1.751685   -1.018836
H     -1.557843    0.483302   -2.244981
H      1.255459    1.774230   -1.882627
H      0.854774    0.505405   -3.142793
