17

C      -0.71487692     -1.66352960      1.36730030
C      -0.01730955     -0.36999695      1.65751677
O      -0.04598222      0.19196895      2.71285953
C       0.84756306      0.25770396      0.55230926
N       0.27797275      0.13080624     -0.80231892
C      -0.73232294      1.09354156     -1.29731920
C       0.62134139      1.09771633     -1.87159782
H      -1.14414674     -2.05578450      2.28716030
H      -0.02165982     -2.40095577      0.94851388
H      -1.52753033     -1.51676893      0.64697894
H       1.82955071     -0.22480198      0.54606398
H       0.97894630      1.31684625      0.77175143
H       0.15075289     -0.82644019     -1.11644928
H      -1.00134416      1.84997386     -0.57061589
H      -1.54793664      0.65108540     -1.85471713
H       1.32788755      1.85633820     -1.56029896
H       0.79179153      0.65440131     -2.84436902
