19

C      -1.59705248      1.25152358      0.67155275
C      -0.12880044      0.91165699      0.70915914
O       0.21066187     -0.02421676      1.71301436
C       0.40808023      0.35933631     -0.63533256
N       1.80802687     -0.08566707     -0.32258944
C      -0.38323042     -0.77813256     -1.19366200
C      -0.11118305     -2.06866371     -1.06082004
H      -1.81503275      1.96653134     -0.12480892
H      -1.89240382      1.70466256      1.61832769
H      -2.20673065      0.35939352      0.50550086
H       0.44558073      1.81612926      0.94404818
H      -0.54226117     -0.59460636      1.90109246
H       0.47684134      1.16662067     -1.36824096
H       1.74710957     -0.55230730      0.59811840
H       2.44850679      0.70371738     -0.23502208
H       2.16733935     -0.73116010     -1.02716807
H      -1.26767228     -0.47238903     -1.74316743
H       0.74768451     -2.45827092     -0.52126316
H      -0.75810234     -2.81690423     -1.50147376
