17

 C     -0.88360602     -1.78986555     -0.00000000
 N     -1.27310633     -0.36630482     -0.00000000
 C     -0.59519285      0.74162285      0.73711100
 C      0.82134875      0.45329619      1.15501100
 O      1.45960956     -0.04888872     -0.00000000
 C      0.82134875      0.45329619     -1.15501100
 C     -0.59519285      0.74162285     -0.73711100
 H     -1.30150352     -2.25509525     -0.89184100
 H     -1.30150252     -2.25509528      0.89184100
 H      0.19855860     -1.87578017     -0.00000000
 H     -2.28171308     -0.25047917     -0.00000000
 H     -1.24973645      1.35211765      1.34599400
 H      1.26226875      1.39832027      1.49737600
 H      0.91928834     -0.28374471      1.95445900
 H      0.91928834     -0.28374471     -1.95445900
 H      1.26226875      1.39832027     -1.49737600
 H     -1.24973645      1.35211765     -1.34599400
