17

 C      1.04149161     -0.05399593      0.06683158
 N      2.49829981     -0.05943032     -0.12155382
 C      3.12435254     -0.58397534     -1.35180192
 C      3.17171805      0.86453396     -1.08440771
 C      4.39962844      1.53580154     -0.59520568
 C      4.78852155      2.83814214     -1.13655827
 O      4.16240198      2.72143693      0.12835180
 H      0.72874065     -1.02683114      0.44432210
 H      0.56345569      0.13937848     -0.89194638
 H      0.78243400      0.73173524      0.77504422
 H      3.02570437     -0.22464698      0.73113632
 H      4.01205745     -1.18265126     -1.18669524
 H      2.41773272     -0.97218838     -2.07402749
 H      2.45216820      1.49717191     -1.59277510
 H      5.17345469      0.88239270     -0.19036041
 H      4.18749795      3.29982291     -1.91529024
 H      5.83875186      3.11142303     -1.11580209
