17

C       1.51412380      0.12769427     -0.56274750
N       2.81681233     -0.12930356      0.08064461
C       3.02101904      0.23810736      1.53846944
C       3.80346464     -1.05989034      1.75065155
C       3.21309467     -1.55648404      0.41514739
C       4.15954962     -2.21857743     -0.56352826
O       4.24206057     -3.40202162     -0.64477761
H       1.51628471     -0.30687789     -1.56230426
H       1.35492241      1.20389213     -0.62531288
H       0.73048736     -0.32975179      0.03896119
H       3.55650928      0.29827208     -0.48136822
H       2.04799088      0.25236670      2.02724155
H       3.52428282      1.19406259      1.66963714
H       4.88422849     -0.91868935      1.70765903
H       3.55244201     -1.65149760      2.62627854
H       2.30927759     -2.15376023      0.53664570
H       4.80523178     -1.53363071     -1.16053085
