19

C       1.80953064      0.76570073     -0.03092550
N       3.00570047     -0.06708688      0.28324299
C       3.37064461     -0.08088990      1.71618370
C       4.77922898     -0.38853942      2.09187440
C       4.24215899      1.00723760      2.23830066
C       3.96455998      1.61400363      3.59445948
O       5.07985127      2.28957314      4.09484202
H       1.61797719      0.72515283     -1.10182798
H       2.01239908      1.78719447      0.28252983
H       0.95887814      0.36803620      0.51854538
H       3.80544267      0.27471574     -0.25379326
H       2.84656156     -1.02700809     -0.03296101
H       2.55278346     -0.46113273      2.31681509
H       5.50076812     -0.57902332      1.30491114
H       4.91958807     -0.99611421      2.97809866
H       4.61211800      1.72669851      1.51043264
H       3.60341690      0.83564786      4.28165369
H       3.17014676      2.35952058      3.50319857
H       5.72088198      1.66178355      4.43932120
