19

 C      1.61574593      0.65328203     -0.25368689
 N      2.81191576     -0.17950558      0.06048160
 C      3.17685991     -0.19330860      1.49342231
 C      4.58544428     -0.50095812      1.86911301
 C      4.04837428      0.89481890      2.01553927
 C      3.77077527      1.50158493      3.37169809
 O      4.88606656      2.17715444      3.87208063
 H      1.42419248      0.61273413     -1.32458937
 H      1.81861437      1.67477577      0.05976844
 H      0.76509343      0.25561749      0.29578399
 H      3.61165796      0.16229704     -0.47655465
 H      2.65277686     -1.13942679     -0.25572240
 H      2.35899876     -0.57355143      2.09405370
 H      5.30698342     -0.69144202      1.08214974
 H      4.72580337     -1.10853291      2.75533726
 H      4.41833329      1.61427981      1.28767125
 H      3.40963220      0.72322916      4.05889230
 H      2.97636205      2.24710188      3.28043718
 H      5.52709728      1.54936485      4.21655981
