19

C       3.23088665     -0.58682977     -0.89981469
N       2.35516625     -0.19174568      0.24121762
C       2.84234291     -0.68575602      1.56576193
C       1.97647456     -0.46905659      2.80844887
C       2.46708270     -1.85274594      3.29176829
C       2.76531498     -2.19961954      1.82261592
O       3.80336267     -3.02342047      1.43215770
H       2.77289770     -0.25944798     -1.83128768
H       3.34779583     -1.66846760     -0.88457425
H       4.20060656     -0.11075766     -0.76954022
H       1.41385018     -0.55998866      0.08890456
H       2.25925228      0.82567459      0.26636264
H       3.85800868     -0.30582042      1.69023750
H       0.90872468     -0.48998720      2.57573012
H       2.19129506      0.40116916      3.42457575
H       3.38878925     -1.75942513      3.87153944
H       1.76761316     -2.48879182      3.82850047
H       1.85177582     -2.59312974      1.35718284
H       4.50764493     -3.01296980      2.08742904
