19

 C      3.18570026     -0.40670577     -0.99914135
 N      2.30997986     -0.01162168      0.14189096
 C      2.79715652     -0.50563202      1.46643527
 C      1.93128817     -0.28893259      2.70912221
 C      2.42189631     -1.67262194      3.19244163
 C      2.72012859     -2.01949554      1.72328926
 O      3.75817628     -2.84329647      1.33283104
 H      2.72771131     -0.07932398     -1.93061434
 H      3.30260944     -1.48834360     -0.98390091
 H      4.15542017      0.06936634     -0.86886688
 H      1.36866379     -0.37986466     -0.01042210
 H      2.21406589      1.00579859      0.16703598
 H      3.81282229     -0.12569642      1.59091084
 H      0.86353829     -0.30986320      2.47640346
 H      2.14610867      0.58129316      3.32524909
 H      3.34360286     -1.57930113      3.77221278
 H      1.72242677     -2.30866782      3.72917381
 H      1.80658943     -2.41300574      1.25785618
 H      4.46245854     -2.83284580      1.98810238
