17

C       2.01576241      1.06537002     -0.16707908
N       1.11273516     -0.04336249     -0.60433402
C      -0.31801823      0.20072016     -0.27895000
C      -1.38650130     -0.85877879     -0.61565738
C      -2.01065715     -0.64948127      0.79351404
C      -0.69167255     -0.03249142      1.19687175
O      -0.02107364      0.01694842      2.17679718
H       3.04330783      0.79365012     -0.40182201
H       1.88811631      1.19656404      0.90507434
H       1.73354904      1.96969881     -0.70241394
H       1.21998416     -0.20297765     -1.60836026
H       1.40780313     -0.90646244     -0.13998179
H      -0.58201604      1.19763777     -0.63644670
H      -2.01382821     -0.64464426     -1.47769534
H      -0.96185279     -1.86032040     -0.71311802
H      -2.33099506     -1.52211788      1.36086017
H      -2.81567779      0.08997027      0.78542806
