19

 C      2.13801710     -1.37945003      0.17555898
 N      2.34376362      0.07238290     -0.08785162
 C      2.96156437      0.81976069      1.04726324
 C      2.99710709      2.33931602      0.89659617
 O      2.26157559      2.50226370      2.10465870
 C      2.03749205      1.09145254      2.24603811
 C      2.42616619      0.56111817      3.59475440
 H      1.67596518     -1.83806557     -0.69675219
 H      1.48933024     -1.48605711      1.04226527
 H      3.10554573     -1.83654190      0.37315544
 H      1.44525280      0.50825239     -0.31078891
 H      2.92593718      0.18670302     -0.92082866
 H      3.90750081      0.33120994      1.27899282
 H      2.45706901      2.72519688      0.02053066
 H      3.98474852      2.80255824      0.93720618
 H      0.98622458      0.84740884      2.02072625
 H      3.47431186      0.77429495      3.81234910
 H      2.26043392     -0.51764322      3.65509885
 H      1.81471472      1.03897764      4.36194043
