19

C       1.50214791     -0.25307729      0.13823317
N       2.95496279     -0.51810207     -0.04879708
C       3.83723865      0.05750876      1.02157830
C       5.28335131     -0.30304496      0.79503010
C       6.13934902     -0.02395905      2.04265654
O       6.10824304     -1.40893084      2.40462354
C       5.63220662     -1.76801069      1.11122993
H       0.94760977     -0.70501831     -0.68219473
H       1.34399606      0.82343903      0.15033202
H       1.18976356     -0.68615937      1.08630309
H       3.25503666     -0.15220564     -0.95474752
H       3.11590689     -1.52727061     -0.08731934
H       3.47694924     -0.34611463      1.97050092
H       3.67355341      1.13687853      1.01393732
H       5.65895853      0.10352496     -0.14698826
H       5.70939581      0.61932668      2.81520377
H       7.15162919      0.31648036      1.80612394
H       6.42527538     -2.17521533      0.47540211
H       4.81311860     -2.49821196      1.16515860
