19

 C      1.12499272     -0.14046399     -0.08201247
 N      2.57780760     -0.40548877     -0.26904272
 C      3.46008346      0.17012207      0.80133266
 C      4.90619612     -0.19043165      0.57478446
 C      5.76219383      0.08865426      1.82241090
 O      5.73108785     -1.29631753      2.18437790
 C      5.25505143     -1.65539738      0.89098429
 H      0.57045458     -0.59240501     -0.90244037
 H      0.96684087      0.93605234     -0.06991362
 H      0.81260837     -0.57354606      0.86605745
 H      2.87788147     -0.03959234     -1.17499316
 H      2.73875170     -1.41465731     -0.30756498
 H      3.09979405     -0.23350132      1.75025528
 H      3.29639822      1.24949184      0.79369167
 H      5.28180334      0.21613826     -0.36723390
 H      5.33224062      0.73193999      2.59495812
 H      6.77447400      0.42909367      1.58587829
 H      6.04812019     -2.06260203      0.25515647
 H      4.43596341     -2.38559865      0.94491296
