19

C      -0.65144592     -0.48186602     -1.81909669
N       0.33339436     -0.02761402     -0.79821612
C       0.29976626      1.45632752     -0.65113133
C       0.17124462     -0.80052169      0.48355934
C       1.09249654     -0.35837945      1.61904461
O       0.02076028      0.35139645      2.24489005
C      -0.93828650     -0.30189241      1.40913072
H      -0.47934928      0.06251096     -2.74589882
H      -1.65368758     -0.27317865     -1.44916808
H      -0.52900411     -1.55092338     -1.98410380
H       1.26293208     -0.26720507     -1.14923904
H      -0.70975820      1.76312523     -0.39077212
H       0.58310459      1.89690694     -1.60533198
H       0.99167167      1.76696054      0.12661557
H       0.17399903     -1.85372905      0.20680225
H       1.94859315      0.27908993      1.37894839
H       1.43855923     -1.20291768      2.22260687
H      -1.44321860     -1.12481257      1.92401921
H      -1.69120878      0.38203727      1.00988526
