18
5669.log
C     -0.591379   -0.557922   -2.198064
N      0.270016    0.000098   -1.182083
C      0.252479    1.444026   -1.214130
C      0.076356   -0.601787    0.107108
C      1.065499   -0.275675    1.231242
O     -0.000447   -0.000468    2.148615
C     -0.991264   -0.113156    1.119302
H     -0.296499   -0.176625   -3.178913
H     -1.658432   -0.311894   -2.052666
H     -0.492770   -1.645703   -2.215044
H      0.626131    1.785370   -2.182605
H      0.904261    1.857684   -0.444034
H     -0.753662    1.874563   -1.075288
H      0.000125   -1.679535   -0.049236
H      1.691436    0.605090    1.051722
H      1.701885   -1.097756    1.571695
H     -1.445076    0.856436    0.885027
H     -1.780037   -0.822630    1.386603
