19

 C     -0.68668444     -0.47362808     -2.17283820
 N      0.29815584     -0.01937608     -1.15195763
 C      0.26452774      1.46456546     -1.00487284
 C      0.13600610     -0.79228374      0.12981783
 C      1.05725802     -0.35014150      1.26530310
 O     -0.01447824      0.35963440      1.89114854
 C     -0.97352502     -0.29365446      1.05538921
 H     -0.51458780      0.07074890     -3.09964033
 H     -1.68892610     -0.26494070     -1.80290959
 H     -0.56424263     -1.54268544     -2.33784531
 H      1.22769356     -0.25896713     -1.50298055
 H     -0.74499672      1.77136318     -0.74451363
 H      0.54786607      1.90514488     -1.95907349
 H      0.95643315      1.77519849     -0.22712594
 H      0.13876051     -1.84549110     -0.14693926
 H      1.91335463      0.28732788      1.02520688
 H      1.40332071     -1.19467973      1.86886536
 H     -1.47845712     -1.11657462      1.57027770
 H     -1.72644730      0.39027522      0.65614375
