19

 C      0.93328544      0.12641090     -0.28384298
 N      2.37162178     -0.13687845     -0.00425665
 C      3.04175741      0.91250340      0.83154456
 C      4.50365949      0.59003194      1.06833791
 C      5.15404028      1.75421915      1.76914221
 C      6.44072508      2.28556895      1.33594042
 O      5.22312955      2.93270410      0.99000853
 H      0.53634729     -0.67594245     -0.90328656
 H      0.85060673      1.07880610     -0.80347492
 H      0.39762944      0.17063154      0.66216701
 H      2.87922190     -0.22082696     -0.88752794
 H      2.46840999     -1.04284959      0.45879873
 H      2.47583808      0.97779019      1.76257488
 H      2.93899671      1.85616803      0.29326742
 H      5.01209333      0.43141634      0.11131729
 H      4.61583877     -0.31884512      1.66940447
 H      4.85146730      1.91139644      2.80392628
 H      7.06194406      2.81998522      2.04779930
 H      6.96503995      1.81053488      0.51101649
