19

C       0.63692766      0.69384404     -0.07310416
N       1.97757392      0.08342969      0.14000976
C       2.62466600      0.61996358      1.36813214
C       1.93216011     -1.41696340      0.16406036
C       1.49706504     -2.01213792     -1.14598494
C       2.46789292     -2.20509632     -2.23046859
O       2.06599523     -3.27272841     -1.39799037
H       0.22695301      0.34848292     -1.01922009
H       0.74115828      1.77709521     -0.08963073
H      -0.01168881      0.39542281      0.74923890
H       2.56091040      0.34404488     -0.65781225
H       2.02407004      0.33100821      2.22917965
H       2.67590882      1.70498606      1.29822069
H       3.62569650      0.20140795      1.45603626
H       2.93812707     -1.77023038      0.39536506
H       1.26653563     -1.69768201      0.98328750
H       0.44043168     -1.94033000     -1.39547220
H       2.11004651     -2.24868086     -3.25470444
H       3.50063356     -1.88449091     -2.10290611
