19

C       1.83883059     -0.76702892      0.83837271
N       3.24559351     -0.47274063      1.22533399
C       3.67793204      0.97424971      1.09853083
C       2.93262736      1.85094995      2.07753450
C       5.17179554      1.02879902      1.29894050
C       6.09939239      0.90848642      0.16939527
O       5.77205459      2.16390727      0.73711031
H       1.67112547     -1.84010325      0.91255044
H       1.68395802     -0.43381648     -0.18592386
H       1.16641090     -0.24064936      1.51017254
H       3.87742453     -1.03665912      0.65260134
H       3.39800330     -0.77243885      2.19121585
H       3.45382591      1.25802046      0.06704266
H       3.09123127      1.52637679      3.11026438
H       1.86232537      1.89925271      1.87639746
H       3.32707809      2.86420066      1.98797126
H       5.52175980      0.77398660      2.30173111
H       7.11305720      0.56493427      0.35212029
H       5.71444026      0.74379759     -0.83507287
