19

C       1.46131067     -0.37699182      0.21600128
N       2.93109655     -0.16673228      0.09627369
C       3.63025683      0.00171963      1.41228717
C       5.11698225      0.20800801      1.23755612
C       5.76860987      0.34757896      2.61636279
C       7.24171888      0.59090256      2.64744070
O       5.07865170      0.26068019      3.59818345
H       1.03380610     -0.48989015     -0.77866320
H       1.02792034      0.48610495      0.71699913
H       1.28707561     -1.27465834      0.80556670
H       3.10852805      0.65487227     -0.48475012
H       3.34574222     -0.95561196     -0.40358421
H       3.41776637     -0.88833441      2.00400069
H       3.16417529      0.84875795      1.91524134
H       5.34072661      1.10637941      0.65083079
H       5.58768255     -0.63345419      0.71576124
H       7.77359457     -0.18327237      2.08747972
H       7.59139643      0.61014458      3.67736318
H       7.47291769      1.54631430      2.16641354
