19

C       1.38126912     -0.21641247     -0.60804107
N       2.77324079      0.03882136     -0.15847481
C       2.92061699      1.14653969      0.88008749
C       4.33152546      1.33449569      1.27128419
C       5.00969210      2.41560835      0.84676814
O       6.24590421      2.76321707      1.12245883
C       7.00961177      1.92193302      1.97794979
H       1.37949477     -1.02030446     -1.34187425
H       0.98523076      0.69484931     -1.05191347
H       0.78135663     -0.49786040      0.25517274
H       3.36791742      0.28362872     -0.95246660
H       3.17677209     -0.81503007      0.23064845
H       2.27709914      0.84387052      1.70901717
H       2.49336484      2.03860115      0.41928210
H       4.77483897      0.62090283      1.95560253
H       4.53696566      3.15312496      0.20080786
H       7.98332893      2.39441765      2.07300979
H       7.12193165      0.92783690      1.53674484
H       6.53659554      1.84647948      2.96044128
