19

 C      1.09436648     -0.51383214     -0.66836500
 N      2.48633816     -0.25859831     -0.21879875
 C      2.63371436      0.84912002      0.81976355
 C      4.04462283      1.03707602      1.21096025
 C      4.72278947      2.11818868      0.78644420
 O      5.95900158      2.46579740      1.06213489
 C      6.72270914      1.62451335      1.91762585
 H      1.09259213     -1.31772413     -1.40219818
 H      0.69832812      0.39742964     -1.11223740
 H      0.49445400     -0.79528007      0.19484881
 H      3.08101478     -0.01379095     -1.01279054
 H      2.88986946     -1.11244974      0.17032451
 H      1.99019651      0.54645085      1.64869323
 H      2.20646221      1.74118148      0.35895817
 H      4.48793634      0.32348316      1.89527859
 H      4.25006302      2.85570529      0.14048392
 H      7.69642630      2.09699798      2.01268585
 H      6.83502902      0.63041723      1.47642090
 H      6.24969291      1.54905981      2.90011734
