19

C       1.59502495      0.39192579     -2.50461699
N       0.44361213      0.09502199     -1.61050014
C       0.75432334      0.19670717     -0.16088637
C      -0.43976201     -0.09805935      0.70082846
C      -1.65349249     -0.41302058      0.24989978
O      -0.04514151      0.01761180      1.96831466
C      -1.00902773     -0.21279505      2.98948779
H       1.27403769      0.29204148     -3.53983570
H       2.39476471     -0.31391642     -2.28994647
H       1.93238026      1.40827549     -2.31274319
H      -0.33174023      0.72912541     -1.81795769
H       0.08916714     -0.84573613     -1.79874945
H       1.56308445     -0.50402041      0.05630838
H       1.12221290      1.20683671      0.03022707
H      -2.47735483     -0.61482119      0.91874624
H      -1.88554247     -0.48607300     -0.80440158
H      -0.48616250     -0.06630327      3.93071297
H      -1.39095094     -1.23516989      2.93184318
H      -1.83239143      0.50094430      2.90658146
