16

C       0.64866980      0.28156900      3.35355429
N       1.07722995     -0.07888411      2.22378564
O       0.08197585      0.03588519      1.24270055
C       0.63851242     -0.33492086      0.01599750
C      -0.53719415     -0.50837372     -0.90307863
C      -1.14815378      0.64840599     -1.57106162
N      -0.27473008     -0.26813326     -2.34836451
H       1.35704807      0.21929796      4.17115485
H      -0.36602225      0.63608828      3.52391932
H       1.31640343      0.44364903     -0.36862936
H       1.20287803     -1.26837112      0.10584791
H      -1.16491065     -1.37630764     -0.73432876
H      -2.18949357      0.61799945     -1.86363239
H      -0.71788350      1.62986879     -1.41551264
H      -0.70347266     -0.88541047     -3.02939460
H       0.64610308      0.06542263     -2.61547641
