15
5854.log
C      0.589140    0.272324    3.087127
N      1.010726    0.000421    1.926551
O      0.000328    0.000496    0.997539
C      0.533091   -0.271150   -0.289145
C     -0.611085   -0.470818   -1.229853
C     -1.192955    0.690145   -1.927049
N     -0.387450   -0.283637   -2.658147
H      1.328184    0.287616    3.878746
H     -0.458191    0.481507    3.300361
H      1.164621   -1.164196   -0.235209
H      1.154159    0.571117   -0.622694
H     -1.257256   -1.310995   -0.992419
H     -0.766345    1.665372   -1.712617
H     -2.246877    0.695619   -2.180846
H      0.544338    0.084435   -2.823606
