16

 C      0.57088194      0.30474511      3.05262426
 N      0.99944209     -0.05570800      1.92285561
 O      0.00418799      0.05906130      0.94177052
 C      0.56072456     -0.31174475     -0.28493253
 C     -0.61498201     -0.48519761     -1.20400866
 C     -1.22594164      0.67158210     -1.87199165
 N     -0.35251794     -0.24495715     -2.64929454
 H      1.27926021      0.24247407      3.87022482
 H     -0.44381011      0.65926439      3.22298929
 H      1.23861557      0.46682514     -0.66955939
 H      1.12509017     -1.24519501     -0.19508212
 H     -1.24269851     -1.35313153     -1.03525879
 H     -2.26728143      0.64117556     -2.16456242
 H     -0.79567136      1.65304490     -1.71644267
 H     -0.78126052     -0.86223436     -3.33032463
 H      0.56831522      0.08859874     -2.91640644
