19

C       1.43659306     -0.07372332      0.41245544
O       0.96381109      0.93077262     -0.47211167
C       1.88101448      1.33478611     -1.39322452
C       1.58232371      2.58298321     -2.15113016
C       2.67560401      2.59637895     -1.12602265
C       2.56409879      3.36992134      0.14808633
N       4.06222338      2.62127206     -1.67983057
H       0.60336369     -0.33619762      1.06035177
H       2.26793973      0.29279861      1.02483020
H       1.75500082     -0.96256136     -0.14246711
H       2.38888308      0.53247924     -1.93586272
H       0.68109985      3.12044486     -1.88249957
H       1.82521181      2.60983408     -3.20766769
H       2.70737070      4.44202486     -0.01229554
H       3.28221842      3.02543105      0.89838012
H       1.56646691      3.22380274      0.56079493
H       4.14825709      2.02594411     -2.50631488
H       4.73936404      2.29260426     -0.98614892
H       4.33255349      3.57076491     -1.95406751
