18
5867.log
C      1.293298   -0.399152    2.003222
O     -0.000228   -0.000529    1.639470
C     -0.340751   -0.349812    0.332183
C     -1.737341    0.078376   -0.112363
C     -1.154890    0.340883   -1.513662
C      0.239916    0.439947   -0.873926
N      1.359154   -0.000418   -1.662928
H      1.426026   -0.161318    3.059076
H      2.065153    0.129221    1.427969
H      1.435723   -1.480094    1.861887
H     -0.182872   -1.430390    0.169920
H     -2.013400    1.008629    0.387927
H     -2.549708   -0.640264   -0.009563
H     -1.516714    1.201166   -2.075747
H     -1.223089   -0.545947   -2.149872
H      0.420449    1.469126   -0.545654
H      1.268912   -0.978550   -1.909869
H      2.236846    0.115186   -1.173302
