19

 C      1.26915841     -0.47413125      2.06329394
 O      0.05053247      0.06139990      1.59604112
 C     -0.31173370     -0.32919615      0.33128529
 C     -1.73064015      0.05321281     -0.11011548
 C     -1.18569879      0.31809349     -1.53003687
 C      0.18652592      0.48903071     -0.88275087
 N      1.38101383     -0.00911453     -1.65572114
 H      1.37547621     -0.17200275      3.10312726
 H      2.13155466     -0.07910125      1.50634110
 H      1.27062277     -1.56890546      2.00605930
 H     -0.13047036     -1.40508281      0.16426253
 H     -2.50742558     -0.69823294      0.00558612
 H     -2.03718336      0.97585003      0.38358142
 H     -1.23866324     -0.58130516     -2.14988939
 H     -1.58322883      1.16142516     -2.09060861
 H      0.40236707      1.51937127     -0.59777196
 H      1.26335736     -0.99463395     -1.90073353
 H      2.24348599      0.07684960     -1.11376012
 H      1.50589892      0.51230607     -2.52708403
