19

C       0.06285794      1.20612514      1.74366557
O       0.19555654     -0.08909075      1.15863636
C      -0.50466894     -0.31144476     -0.03178188
C      -1.85275698      0.31511438     -0.20155694
C      -0.21223447     -1.65881964     -0.59224390
C       0.43592076     -0.46162550     -1.21878688
N       1.84473021     -0.25253360     -0.84562311
H       0.73117974      1.21581586      2.60248638
H      -0.95773560      1.37722104      2.08750124
H       0.34863496      2.00154169      1.04641152
H      -2.28137973      0.01598307     -1.15892215
H      -1.81028628      1.40480633     -0.18166662
H      -2.52627880     -0.02727782      0.58681210
H       0.40594599     -2.31663195      0.01005199
H      -0.97677400     -2.15958593     -1.17153896
H       0.19511559     -0.13425440     -2.22101292
H       1.82839613     -0.20231820      0.19374922
H       2.21367035      0.62665615     -1.21010876
H       2.45954044     -1.01057499     -1.14614126
