18
5868.log
C      0.229122    1.350841    1.580652
O     -0.000141    0.000290    1.235752
C     -0.538212   -0.176100   -0.042854
C     -1.885427    0.446203   -0.274920
C     -0.239321   -1.515676   -0.634437
C      0.453235   -0.275541   -1.166176
N      1.833167    0.000180   -0.900674
H      0.819430    1.345073    2.497603
H     -0.707071    1.885871    1.775384
H      0.785584    1.876034    0.796438
H     -1.850125    1.536631   -0.212948
H     -2.605318    0.078602    0.461629
H     -2.252203    0.185851   -1.269176
H     -1.006966   -2.001630   -1.225575
H      0.368480   -2.176609   -0.027480
H      0.118710    0.093491   -2.131224
H      2.429264   -0.620065   -1.435653
H      2.024848   -0.173158    0.079544
