19

 C      1.42613392      0.74695331     -1.06773815
 O      1.99936553     -0.20235222     -0.18416878
 C      2.77394703     -1.13620746     -0.79990277
 C      3.07471648     -2.39710192     -0.05252093
 C      2.56675527     -2.63609730      1.34179581
 C      2.12546019     -2.43413701     -1.21345928
 N      2.54573660     -3.10630838     -2.46838788
 H      0.87182036      1.45223514     -0.45273297
 H      0.73761075      0.26641765     -1.77279894
 H      2.20265940      1.28403017     -1.62287064
 H      3.56258313     -0.74673211     -1.44985446
 H      4.06965921     -2.79035381     -0.25208690
 H      1.58982890     -2.17723474      1.49117311
 H      3.25349609     -2.19560347      2.06573658
 H      2.49202054     -3.70452697      1.55083397
 H      1.06806107     -2.56901110     -1.02400790
 H      3.52953840     -2.91601527     -2.67120310
 H      2.00019543     -2.78278384     -3.27153783
 H      2.44138063     -4.12312234     -2.40473734
