19

C      -0.70245202     -0.77073635      2.66514206
O       0.07552009      0.02220118      1.78012264
C      -0.60030404      0.41332853      0.63706002
C       0.33756645      1.28522519     -0.19906114
N       0.74960761      0.05913142     -0.98703944
C       1.01733735      0.16792680     -2.43062831
C      -0.51009013     -0.62812359     -0.50168307
H      -0.07160968     -0.99196512      3.52296067
H      -1.01338879     -1.71156718      2.19696334
H      -1.58876430     -0.22072307      2.99667907
H      -1.59616882      0.81364508      0.84546496
H       1.16219911      1.76836301      0.32090265
H      -0.17369944      1.97493359     -0.86867726
H       1.54994765     -0.36662057     -0.51907887
H       0.15710250      0.62894059     -2.91352009
H       1.18251468     -0.82836794     -2.83971011
H       1.90309853      0.78362598     -2.58441782
H      -1.27849025     -0.52179740     -1.26670135
H      -0.35879749     -1.67337371     -0.23941122
