19

 C     -0.74221607     -0.83841895      2.50719638
 O      0.03575604     -0.04548142      1.62217696
 C     -0.64006809      0.34564593      0.47911434
 C      0.29780241      1.21754259     -0.35700682
 N      0.70984357     -0.00855118     -1.14498512
 C      0.97757331      0.10024420     -2.58857399
 C     -0.54985417     -0.69580619     -0.65962875
 H     -0.11137373     -1.05964772      3.36501499
 H     -1.05315284     -1.77924978      2.03901766
 H     -1.62852835     -0.28840567      2.83873339
 H     -1.63593287      0.74596248      0.68751928
 H      1.12243507      1.70068041      0.16295697
 H     -0.21346348      1.90725099     -1.02662294
 H      1.51018361     -0.43430317     -0.67702455
 H      0.11733846      0.56125799     -3.07146577
 H      1.14275064     -0.89605054     -2.99765579
 H      1.86333449      0.71594338     -2.74236350
 H     -1.31825429     -0.58948000     -1.42464703
 H     -0.39856153     -1.74105631     -0.39735690
