17

C       0.96189996     -0.18913401     -0.07398095
O       2.39568735     -0.10878672     -0.17059258
C       2.94256076     -0.74670090     -1.18274150
O       2.36574058     -1.38221496     -2.02316615
C       4.45267317     -0.58672984     -1.17671887
C       5.01644150     -1.34715693     -2.35437554
N       6.51691316     -1.22085766     -2.40439735
H       0.69999762      0.37768176      0.81440312
H       0.65267827     -1.22920617      0.02367160
H       0.50422302      0.24696768     -0.96122590
H       4.68809153      0.48128544     -1.22519681
H       4.83785830     -0.95939241     -0.22225342
H       4.78758427     -2.41052556     -2.29787244
H       4.63265675     -0.97045884     -3.30147950
H       6.95060664     -1.59287280     -1.55646056
H       6.80549556     -0.24375533     -2.49213155
H       6.90458241     -1.73150474     -3.20072730
