18

 C      2.10906949     -0.75958515      1.68836981
 O      2.96596762     -0.34873576      0.62803119
 N      3.66985731     -1.39584286      0.15367678
 C      4.41433271     -1.08935820     -0.82756590
 C      5.25076463     -2.17410312     -1.42571865
 C      6.69896694     -2.02447186     -0.99879480
 N      7.54621829     -3.11563504     -1.60698742
 H      1.59507599      0.14455433      2.00809902
 H      2.69127620     -1.17148369      2.51469343
 H      1.38580937     -1.49567975      1.33351898
 H      4.45312338     -0.07511684     -1.22663137
 H      4.85389710     -3.13395818     -1.08196083
 H      5.17600694     -2.14033535     -2.51951012
 H      7.13478743     -1.07788121     -1.32117195
 H      6.80660843     -2.11234602      0.08256523
 H      7.51133705     -3.08173725     -2.62833170
 H      7.20811128     -4.03748563     -1.32090531
 H      8.52542558     -3.03974834     -1.32410558
