16
6050.log
N      1.147908    0.000250   -1.809550
C      0.378724    0.203249   -0.626845
C     -0.917213    0.941808   -0.734227
C     -0.918974   -0.519693   -0.400664
C     -0.949813   -0.860610    1.064481
O      0.000177   -0.000025    1.676677
C      1.026791    0.255753    0.742421
H      1.719641    0.809205   -2.019780
H      1.762414   -0.800119   -1.718091
H     -1.224688    1.208590   -1.737058
H     -1.176790    1.647855    0.047109
H     -1.280329   -1.231764   -1.130991
H     -0.677705   -1.916141    1.214807
H     -1.910578   -0.678623    1.552984
H      1.817890   -0.511407    0.792971
H      1.469614    1.224453    0.993732
