17

 N      0.93801536     -0.18958670     -0.20268346
 C      2.41547998     -0.00563041     -0.09566132
 C      3.39065024     -0.60695991     -1.11698256
 C      4.35182556     -0.22934670      0.03272342
 C      3.24276721     -0.66152371      1.01836341
 O      4.29091892      1.19544198      0.06491250
 C      2.89543876      1.44446747     -0.02536799
 H      0.56844778      0.25816095     -1.04600861
 H      0.45422189      0.21601549      0.60334768
 H      0.69476795     -1.18168388     -0.24488025
 H      3.52345595     -0.09813917     -2.07119489
 H      3.28614517     -1.68517036     -1.23687613
 H      5.37572810     -0.58042050      0.09466275
 H      3.12653817     -1.74405990      1.06775723
 H      3.24106346     -0.20233237      2.00639048
 H      2.53724320      1.98022662      0.86056546
 H      2.66081993      2.02582222     -0.92381145
