17

 N      1.11263156      0.08928046      0.02731184
 C      2.60369288      0.08935403      0.10565470
 C      3.16774880     -0.88461679     -0.94187309
 C      4.67251947     -0.68257699     -0.83505264
 C      4.67224944      0.86647261     -0.83136808
 C      3.16740835      1.06849366     -0.93722743
 O      2.76613750      0.09426901     -1.94878229
 H      0.69680250     -0.73900972      0.45670256
 H      0.89558284      0.09164131     -0.98113908
 H      0.69651412      0.91537357      0.46063765
 H      2.92557526      0.08693470      1.14637324
 H      2.76491493     -1.88474563     -1.10003980
 H      5.17661802     -1.10927422     -1.70031765
 H      5.09374521     -1.12585887      0.06802782
 H      5.09332137      1.30560022      0.07381127
 H      5.17619848      1.29745693     -1.69459303
 H      2.76422568      2.06922312     -1.09063493
