17

N       1.13481131      0.08974575     -0.16668116
C       2.62587263      0.08981933     -0.08833830
C       3.18992856     -0.88415149     -1.13586608
C       4.69469923     -0.68211169     -1.02904563
C       4.69442920      0.86693791     -1.02536108
C       3.18958810      1.06895896     -1.13122043
O       2.78831726      0.09473430     -2.14277529
H       0.71898226     -0.73854443      0.26270956
H       0.91776260      0.09210660     -1.17513208
H       0.71869387      0.91583886      0.26664465
H       2.94775501      0.08740000      0.95238024
H       2.78709469     -1.88428034     -1.29403279
H       5.19879778     -1.10880892     -1.89431064
H       5.11592497     -1.12539357     -0.12596517
H       5.11550112      1.30606552     -0.12018173
H       5.19837824      1.29792223     -1.88858602
H       2.78640543      2.06968841     -1.28462793
