17

 N      1.80535366     -0.04285753     -0.64001076
 C      0.70349102      0.91508045     -0.82140293
 C     -0.71615685      0.41670232     -0.84881783
 C     -1.02643409     -1.03471787     -0.51453941
 C     -0.85025206     -1.07105370      1.00370519
 O      0.09083603     -0.01433679      1.29133230
 C     -0.16641072      1.02905213      0.39863846
 H      2.70792115      0.43190060     -0.59143509
 H      1.85475384     -0.75873832     -1.36629168
 H      1.61013144     -0.48512005      0.28374073
 H      0.97544443      1.77944835     -1.41142379
 H     -1.38193886      0.96823895     -1.49951872
 H     -2.04432382     -1.28137004     -0.81483851
 H     -0.37163219     -1.74617446     -1.02816352
 H     -1.78879692     -0.85618249      1.52033936
 H     -0.43248283     -1.99762099      1.39624763
 H     -0.44595170      1.98296238      0.82736371
