16
6053.log
N      1.853207    0.000062   -0.749211
C      0.732744    0.874664   -0.801026
C     -0.721832    0.416053   -0.842831
C     -1.006794   -1.034033   -0.511799
C     -0.873977   -1.069699    1.011267
O      0.000902   -0.000091    1.359452
C     -0.143823    1.010913    0.403053
H      1.880458   -0.648288   -1.524808
H      1.853898   -0.522221    0.118258
H      0.913597    1.801595   -1.339186
H     -1.416711    0.969598   -1.461572
H     -0.285902   -1.706642   -0.987457
H     -2.004311   -1.330387   -0.839694
H     -0.438993   -1.994113    1.397105
H     -1.849527   -0.916238    1.491304
H     -0.420349    1.979685    0.804084
