17

 N      1.04631077     -0.07665953      0.12717987
 C      2.54117771     -0.04412089      0.06143379
 C      3.10957735      1.00979889     -0.92002544
 C      2.78830733      0.01088096     -2.06492750
 C      3.18223356     -1.00271773     -0.97541951
 O      4.54607153     -0.74469181     -0.74618665
 C      4.58933274      0.70110211     -0.72323056
 H      0.71429838     -0.92868331      0.58531960
 H      0.63585628     -0.04445251     -0.80911600
 H      0.68131718      0.72041223      0.65402765
 H      2.91424982     -0.08318056      1.08510254
 H      2.80405109      2.05471676     -0.91585089
 H      1.74378807     -0.01505177     -2.38523084
 H      3.42070498      0.03737166     -2.95070728
 H      2.98912114     -2.07263733     -1.01712406
 H      4.99249491      1.04191387      0.23227996
 H      5.21112167      1.07605577     -1.53768732
