15

N       1.43746996     -0.04719497     -0.63390872
C       0.32700920      0.91206877     -0.57834811
C      -0.42484260      1.01430960      0.70804663
O      -0.16486308      0.01860240      1.66099212
C      -0.62094193     -1.16096213      1.16189146
C      -1.16347832     -1.06118068     -0.05656338
C      -1.07903893      0.35412206     -0.48519604
H       2.17676205      0.17019587      0.03828505
H       1.84704370     -0.09831053     -1.56798747
H       1.04536134     -0.97959342     -0.39306318
H       0.50535271      1.80959953     -1.15328648
H      -0.66465045      1.97917861      1.13349396
H      -0.50003301     -2.01280125      1.81653468
H      -1.64954732     -1.85381286     -0.60444444
H      -1.84728331      0.81171044     -1.09428320
