15

 N      1.62699878     -0.06105169     -0.89094271
 C      0.51653802      0.89821205     -0.83538210
 C     -0.23531379      1.00045288      0.45101264
 O      0.02466573      0.00474568      1.40395813
 C     -0.43141312     -1.17481885      0.90485747
 C     -0.97394951     -1.07503740     -0.31359737
 C     -0.88951012      0.34026534     -0.74223004
 H      2.36629086      0.15633915     -0.21874894
 H      2.03657252     -0.11216725     -1.82502146
 H      1.23489015     -0.99345014     -0.65009717
 H      0.69488153      1.79574281     -1.41032047
 H     -0.47512164      1.96532189      0.87645996
 H     -0.31050420     -2.02665797      1.55950069
 H     -1.46001851     -1.86766958     -0.86147843
 H     -1.65775449      0.79785372     -1.35131720
