14
6057.log
N      1.653343    0.000029   -0.926260
C      0.538987    0.875861   -0.841636
C     -0.214012    0.983881    0.446759
O     -0.000040    0.000037    1.424327
C     -0.450466   -1.176923    0.910789
C     -1.011367   -1.074510   -0.290863
C     -0.878429    0.324393   -0.745440
H      2.479305    0.402635   -0.505125
H      1.861641   -0.256983   -1.881196
H      0.572759    1.827318   -1.374586
H     -0.473182    1.946396    0.868511
H     -0.293740   -2.038003    1.543705
H     -1.454940   -1.881705   -0.851914
H     -1.654925    0.798408   -1.333510
