15

N      -0.89661044     -1.24210544     -0.70379048
C      -1.02162291      0.22134696     -0.69614885
C      -0.55434459      0.91395277      0.55840646
O       0.08536387      0.06698162      1.46507718
C       1.43661431      0.04453808      1.04369680
O       1.36592629      0.07440456     -0.37955140
C       0.30641333      0.94427926     -0.65845035
H      -1.32727935     -1.65717071     -1.53062239
H      -1.29728378     -1.66721010      0.13647195
H       0.11820998     -1.44709202     -0.70915179
H      -1.85875161      0.60527531     -1.26300044
H      -1.10440509      1.75301655      0.96515023
H       1.97269946      0.92531569      1.41087945
H       1.90882950     -0.88208192      1.36565461
H       0.51583460      1.79987723     -1.28666811
