17

 N      1.22322058      0.05811087     -2.18850346
 C      0.66696206      0.43355204     -0.86582137
 C     -0.46691518      1.39484645     -0.82539457
 C     -0.68735465     -0.05512481     -0.48797821
 C     -0.91679652     -0.44919360      0.93500953
 C     -0.05661748     -1.39755981      1.63329602
 O      0.06674320      0.00353587      1.84312005
 H      1.68340063     -0.85542089     -2.15851188
 H      1.91082768      0.74666064     -2.50698037
 H      0.48872569      0.00980948     -2.89826173
 H      1.43705405      0.48575673     -0.10590742
 H     -0.44845395      2.11618246     -0.01786250
 H     -0.87785060      1.76583872     -1.75794351
 H     -1.24144802     -0.63404298     -1.22296655
 H     -1.94399035     -0.33009229      1.27392514
 H      0.77373880     -1.86293982      1.10651458
 H     -0.45115888     -1.95861771      2.47433140
