16

N       1.20105278      0.13848776      0.08119050
C       2.66471035      0.06324972     -0.13721057
C       3.19818094     -0.73850389     -1.27852219
C       3.24742379      0.75840248     -1.31289244
O       4.41958109      1.42510206     -1.04609107
N       5.19012991      1.44793610     -2.22424067
C       6.26358965      2.08506582     -2.04604194
H       0.94420103      0.98429824      0.59805790
H       0.86228276     -0.67123067      0.60840664
H       0.69591676      0.15609225     -0.80775281
H       3.20641508      0.08525940      0.79938353
H       4.11628326     -1.27937002     -1.08888033
H       2.50845460     -1.22929437     -1.95649140
H       2.57543748      1.25490524     -2.01301098
H       6.92127239      2.15520064     -2.90445503
H       6.53566927      2.54629867     -1.09863771
