16

 N      0.86979842     -0.02760639      0.22967813
 C      2.33345599     -0.10284443      0.01127706
 C      2.86692658     -0.90459804     -1.13003456
 C      2.91616943      0.59230833     -1.16440481
 O      4.08832673      1.25900791     -0.89760345
 N      4.85887555      1.28184195     -2.07575305
 C      5.93233529      1.91897167     -1.89755432
 H      0.61294667      0.81820409      0.74654553
 H      0.53102840     -0.83732482      0.75689427
 H      0.36466240     -0.01000190     -0.65926518
 H      2.87516072     -0.08083475      0.94787116
 H      3.78502890     -1.44546417     -0.94039270
 H      2.17720024     -1.39538852     -1.80800377
 H      2.24418312      1.08881109     -1.86452335
 H      6.59001803      1.98910649     -2.75596741
 H      6.20441491      2.38020452     -0.95015009
