17

 N      1.04142742     -0.00426178      0.23700383
 C      2.52546042     -0.07900383      0.01220733
 C      3.11693600     -1.22727509      0.85658195
 C      3.80270747     -0.34479096      1.90533107
 C      4.57881828      0.66296500      1.05186676
 C      3.14269517      1.09995040      0.78641002
 O      2.78654824      0.69203327      2.12832405
 H      0.60371459      0.75652255     -0.28621871
 H      0.93126250      0.17669152      1.24743088
 H      0.56424225     -0.87470959     -0.00070678
 H      2.71170905     -0.11468286     -1.05959453
 H      3.81262016     -1.84707556      0.29190111
 H      2.35602030     -1.87894070      1.29282325
 H      4.18686686     -0.80006718      2.81350283
 H      5.10405391      1.39965054      1.65542704
 H      5.19462311      0.29993654      0.22922290
 H      2.85090949      2.11542400      0.51791096
