17

N       1.14003057      0.10806533      0.42914969
C       2.62406357      0.03332327      0.20435319
C       3.21553914     -1.11494799      1.04872781
C       3.90131061     -0.23246386      2.09747693
C       4.67742143      0.77529210      1.24401262
C       3.24129832      1.21227750      0.97855588
O       2.88515138      0.80436037      2.32046991
H       0.70231774      0.86884966     -0.09407285
H       1.02986565      0.28901863      1.43957674
H       0.66284540     -0.76238248      0.19143908
H       2.81031220     -0.00235576     -0.86744867
H       3.91122330     -1.73474846      0.48404697
H       2.45462344     -1.76661360      1.48496911
H       4.28547000     -0.68774008      3.00564869
H       5.20265706      1.51197764      1.84757290
H       5.29322626      0.41226364      0.42136876
H       2.94951264      2.22775110      0.71005682
