17

 N      1.54373609      0.15902806      0.97067508
 C      2.58655758     -0.11447168     -0.08082442
 C      2.44815036     -1.52037039     -0.66943450
 C      3.06317531     -1.35015854     -2.03644554
 O      4.27300767     -0.60963712     -1.99854111
 C      3.08715973      0.06889771     -2.38176196
 C      2.48851028      0.86755394     -1.25051753
 H      1.64367888      1.10111463      1.35567409
 H      1.61655681     -0.50358249      1.74616479
 H      0.60077213      0.08060402      0.58290152
 H      3.54375529     -0.00695454      0.42749403
 H      2.94728850     -2.28096262     -0.06518664
 H      1.39585029     -1.80861230     -0.78398177
 H      3.00575288     -2.14630604     -2.76990138
 H      3.04947491      0.44053979     -3.39939042
 H      1.44508467      1.10437676     -1.49283526
 H      3.01633720      1.80435493     -1.05931726
