17

 N      1.18427706      0.33980719      0.46936473
 C      2.48903304     -0.15019432     -0.11478023
 C      2.38791864     -1.65977836     -0.40255546
 C      2.96742232     -1.86706609     -1.80858552
 C      2.85487454     -0.52174477     -2.46382416
 O      1.58052181      0.10861936     -2.29382007
 C      2.65638659      0.51427697     -1.45723527
 H      1.22412192      1.32393819      0.74151327
 H      0.89680383     -0.20552299      1.28349230
 H      0.47280508      0.23646290     -0.26468705
 H      3.27533841      0.11301748      0.59421213
 H      2.90688369     -2.24687303      0.35477119
 H      1.34007127     -1.97102812     -0.38607393
 H      4.02275301     -2.14804299     -1.76835971
 H      2.44207193     -2.64731371     -2.36104200
 H      3.34173807     -0.30605774     -3.40814252
 H      3.00080972      1.53955353     -1.55309338
