15

 N      1.02287077     -0.02468861     -0.01865843
 C      2.53750719      0.07852365     -0.05871291
 C      2.98557235      1.39382398      0.51136554
 C      3.69660313      1.21531859      1.62441714
 C      3.86600504     -0.23057083      1.91992434
 O      4.53975693     -0.91392577      0.85683887
 C      3.14423660     -0.96003201      0.86958344
 H      0.59151801      0.69960287     -0.59677136
 H      0.68866113      0.10697791      0.93961856
 H      0.69384533     -0.93371386     -0.35465940
 H      2.82319244     -0.07228711     -1.10301004
 H      2.82173306      2.33851197      0.00657343
 H      4.15428828      2.00423230      2.20706744
 H      4.04321526     -0.61911652      2.91519762
 H      2.68192620     -1.93655182      1.00062690
