17

 N      0.96496190     -0.08443027     -0.09421569
 C      2.47367213     -0.11636586     -0.03055114
 C      2.96340119     -1.33738460     -0.80474010
 C      3.21636867     -0.77294374     -2.17543460
 C      3.20923837      0.55772456     -2.18169986
 C      3.00564483      1.11538789     -0.80087358
 O      4.17096690      1.61118003     -0.20728704
 H      0.54844355     -0.88882785      0.37749174
 H      0.66493913     -0.10023182     -1.07395123
 H      0.59158366      0.76492592      0.33528105
 H      2.74485680     -0.08393205      1.02374223
 H      3.88061020     -1.73657682     -0.36128884
 H      2.24916015     -2.16790372     -0.79692351
 H      3.41536721     -1.40241227     -3.03405188
 H      3.40327280      1.19104843     -3.03819007
 H      2.27733306      1.93838224     -0.77179292
 H      4.94443161      1.26071216     -0.66074995
