19

N       1.76188033     -0.06401444     -0.51927144
C       0.53246188      0.81765021     -0.58289095
C      -0.63405148      0.02386089     -1.15095882
C      -1.05077758     -1.11732772     -0.22309320
C      -1.14005982     -0.64432819      1.21594930
O       0.06403404      0.02217819      1.60110998
C       0.25516829      1.20106944      0.86478027
H       2.61258609      0.47961913     -0.36791876
H       1.88481053     -0.62928256     -1.35995688
H       1.62971262     -0.68355123      0.29319013
H       0.78487191      1.67758346     -1.20505480
H      -1.45899583      0.73296659     -1.26594642
H      -0.40769091     -0.34048456     -2.15782137
H      -2.01281812     -1.52127985     -0.54469536
H      -0.34308883     -1.95284405     -0.28650407
H      -1.98485211      0.04192048      1.35493356
H      -1.26078852     -1.47735100      1.90737898
H       1.09317505      1.73831578      1.31755895
H      -0.62387484      1.85540156      0.90138617
