19

 N      1.77637252     -0.08974350     -0.70244175
 C      0.54695407      0.79192116     -0.76606125
 C     -0.61955929     -0.00186816     -1.33412913
 C     -1.03628539     -1.14305677     -0.40626351
 C     -1.12556763     -0.67005724      1.03277899
 O      0.07852623     -0.00355087      1.41793967
 C      0.26966048      1.17534038      0.68160997
 H      2.62707828      0.45389007     -0.55108907
 H      1.89930272     -0.65501161     -1.54312719
 H      1.64420481     -0.70928029      0.11001982
 H      0.79936410      1.65185441     -1.38822510
 H     -1.44450364      0.70723754     -1.44911672
 H     -0.39319872     -0.36621361     -2.34099168
 H     -1.99832593     -1.54700890     -0.72786567
 H     -0.32859664     -1.97857310     -0.46967438
 H     -1.97035992      0.01619143      1.17176325
 H     -1.24629633     -1.50308006      1.72420867
 H      1.10766724      1.71258672      1.13438865
 H     -0.60938265      1.82967251      0.71821587
