14

N       1.34479963      0.46418972     -0.14317069
C       2.81499373      0.18669280     -0.02646323
C       3.36792057     -1.02766709     -0.68162560
C       4.35580463     -0.61405710     -1.48408206
N       4.47043007      0.77585931     -1.52260626
C       3.49365782      1.35135936     -0.77604538
O       3.11271521      2.48987660     -0.72096203
H       1.23442191      1.49083138     -0.09198584
H       0.79249001      0.02319321      0.59318497
H       0.98436044      0.14980546     -1.04736363
H       3.05911911      0.25452925      1.03863524
H       3.15228723     -2.05162597     -0.41933166
H       5.05096316     -1.21874915     -2.04900643
H       5.05676045      1.29350223     -2.15958942
