15

 N      0.91126209     -0.22525344     -0.26534718
 C      2.42709201     -0.09024581     -0.00030335
 C      3.14693827     -1.30093023     -0.47014840
 C      3.87817387     -0.93357627     -1.52465489
 O      3.78987257      0.37757286     -1.84565226
 C      2.99461145      0.98182007     -0.89784101
 C      2.81622076      2.29001181     -0.84425190
 H      0.42347925      0.65765824     -0.09458351
 H      0.49601209     -0.94919744      0.32566258
 H      0.75992984     -0.49025801     -1.24159427
 H      2.49945934      0.14056453      1.06417841
 H      3.11810485     -2.27920737     -0.01664579
 H      4.54078711     -1.51392839     -2.15095886
 H      3.27678993      2.94699442     -1.57063977
 H      2.22586394      2.73678529     -0.05437414
