13

 N      0.17930917     -0.62528477     -1.91740018
 C     -0.20922637      0.36508298     -0.85263418
 C     -1.54126741      0.21389887     -0.22037728
 C     -1.32258138      0.09847077      1.08742108
 O      0.00476835      0.05198666      1.45278442
 C      0.74402659      0.10735946      0.32531545
 O      1.90952104     -0.08598298      0.24113367
 H      1.20769158     -0.66003330     -1.96382800
 H     -0.18725609     -0.37389297     -2.83748137
 H     -0.15814943     -1.56384302     -1.68600405
 H     -0.02159133      1.35743209     -1.27466704
 H     -2.50395146      0.33210985     -0.69348594
 H     -2.01530512      0.05026468      1.91482833
