12
6101.log
N      0.093536   -0.635933   -1.952793
C     -0.183462    0.302697   -0.887510
C     -1.523359    0.272738   -0.212095
C     -1.324696    0.100566    1.085719
O      0.000005    0.000113    1.449119
C      0.760544    0.085224    0.305156
O      1.941982    0.000126    0.328647
H     -0.402236   -0.375285   -2.794736
H     -0.202227   -1.569984   -1.696665
H      0.042154    1.306900   -1.267770
H     -2.479772    0.379080   -0.700781
H     -2.019101    0.022145    1.909169
