17

 N     -0.51927725      0.83230098     -2.17128894
 C     -0.40562907      0.57662727     -0.69637616
 C     -1.47009541     -0.26884129      0.00308992
 C     -0.32170149     -0.81992262      0.88871961
 O     -0.01742164      0.02166360      1.96574577
 C      0.66146629     -0.43747785     -0.24417873
 O      1.92357256     -0.00068809      0.06074855
 H     -1.29742824      1.45665106     -2.39585055
 H     -0.66184119     -0.04033215     -2.68461468
 H      0.34032235      1.26257378     -2.52382858
 H     -0.25981358      1.54541522     -0.21981075
 H     -1.87844221     -1.05468116     -0.63793513
 H     -2.27954357      0.25711067      0.50541485
 H     -0.36930264     -1.87094954      1.17561281
 H     -0.41094550     -0.30861289      2.77767701
 H      0.72924844     -1.26007689     -0.96697667
 H      1.91070904      0.33503738      0.96829466
