15

N       0.81208005     -0.04142368     -1.59404724
C      -0.45476467      0.04482672     -0.65581562
C      -0.51135223     -1.17972574      0.17191638
C      -0.27184400     -1.13360879      1.48332100
O      -0.01571025     -0.00442130      2.16803837
C      -0.10537720      1.15821432      1.49740805
C      -0.33454277      1.25448956      0.18687866
H       0.89235767      0.78814940     -2.18574518
H       0.77216633     -0.86659316     -2.19591536
H       1.65216982     -0.10599366     -1.01633701
H      -1.26746173      0.10834112     -1.38532925
H      -0.77901513     -2.13004977     -0.27332795
H      -0.29356604     -1.99913407      2.13245826
H      -0.00237738      2.00979105      2.15709975
H      -0.46167676      2.23889013     -0.24647358
