17

 N      0.89703968      0.00100596     -0.15554799
 C      2.42837430     -0.04223059     -0.09882729
 C      2.90021495     -1.32360814      0.58285394
 C      3.26364160     -0.92690770      2.03185499
 O      4.40375027     -1.55803623      2.52940078
 C      3.35241879      0.57342849      1.95127884
 C      2.91631039      1.05825320      0.79299271
 H      0.52029983     -0.75396170     -0.73249765
 H      0.56865267      0.88847053     -0.54174234
 H      0.50631303     -0.08666134      0.78516794
 H      2.73201978      0.05000363     -1.14364614
 H      3.80800074     -1.66563123      0.08215101
 H      2.18588087     -2.14869068      0.52140089
 H      2.47089465     -1.21070889      2.73439959
 H      5.18474376     -1.26077734      2.05043163
 H      3.74361810      1.16399405      2.77156555
 H      2.89714152      2.10228317      0.50229080
