17

 N      0.93565205     -0.02410944     -1.96847149
 C     -0.35547933     -0.05284003     -1.12909822
 C     -0.46055859      1.22049289     -0.30845138
 C      0.36625981      1.10957582      0.95669864
 O     -0.02018758     -0.00763369      1.74190033
 C     -0.25784118     -1.13001146      1.07380250
 C     -0.35615819     -1.25089111     -0.25893941
 H      1.05009235     -0.90677021     -2.47004340
 H      1.74653175      0.07938066     -1.35468490
 H      0.93884793      0.73864044     -2.65001001
 H     -1.14747752     -0.10054692     -1.88061871
 H     -0.16503497      2.10881679     -0.87425119
 H     -1.51311929      1.35282931     -0.04658189
 H      1.43938739      1.00759239      0.73652481
 H      0.24364596      1.98582749      1.59081741
 H     -0.39231439     -1.97495893      1.74003790
 H     -0.58341919     -2.22351914     -0.67622251
