16

N       1.47536945     -0.24041175      0.26121758
C       2.98024331     -0.28773441      0.27939644
C       3.56213047      0.87217327      1.09941616
N       4.79367904      0.29985272      1.55662668
C       4.84044390     -1.06616265      1.55279235
O       5.72108889     -1.76215254      1.96127370
C       3.52257675     -1.54425257      0.92756774
H       1.09199753     -1.01490536     -0.28590580
H       1.12584967      0.63101351     -0.14643153
H       1.09697786     -0.31479418      1.20919856
H       3.29055741     -0.21293470     -0.76382213
H       2.89071790      1.14395478      1.93044093
H       3.72258691      1.76614284      0.49214646
H       5.52382195      0.83979904      1.99431971
H       3.69889462     -2.37149348      0.24208981
H       2.88945977     -1.90395509      1.74743104
