15

N       1.30126378      0.18136474     -0.03602921
C       2.77535323      0.21575641     -0.02957744
C       3.38836561     -0.50499228     -1.18249231
O       2.42168137     -1.05646435     -2.00690212
C       3.45622174      1.00560008     -1.12133827
C       4.68003254      1.67309066     -0.80700756
C       5.71512839      2.21649752     -0.54189473
H       0.94185005     -0.44260600      0.68981266
H       1.01599890     -0.20728323     -0.95083121
H       0.88118903      1.10337807      0.09610926
H       3.20904415      0.18574928      0.95995145
H       4.28915850     -1.08491691     -1.01170870
H       2.74765770     -1.14310300     -2.90941518
H       2.79887147      1.50527326     -1.83057999
H       6.63563570      2.70565932     -0.31515593
