17

N       1.17177126      0.02291782      0.29968894
C       2.65473124      0.12930466      0.12996362
C       3.38303247      1.22314167      0.90103718
O       4.33904366      0.26365499      1.34705166
C       3.50234620     -0.84457324      0.96602815
C       4.20342752     -1.95258763      0.28122126
C       4.11303986     -3.21349312      0.68129533
H       0.67683971      0.77671852     -0.18371856
H       0.91607678      0.06602193      1.28979164
H       0.82520915     -0.86569851     -0.07290868
H       2.86182191      0.09959522     -0.93883192
H       2.80121140      1.64850658      1.73194053
H       3.83097317      2.02991898      0.31999573
H       2.94448031     -1.22505366      1.83779568
H       4.81764551     -1.67842912     -0.57281202
H       3.53186131     -3.49571069      1.55398151
H       4.62861369     -4.01064569      0.15983123
