17

 N      0.84546209     -0.00117534      0.21408049
 C      2.32842207      0.10521150      0.04435517
 C      3.05672330      1.19904851      0.81542873
 O      4.01273449      0.23956182      1.26144321
 C      3.17603703     -0.86866640      0.88041970
 C      3.87711835     -1.97668079      0.19561281
 C      3.78673069     -3.23758628      0.59568688
 H      0.35053054      0.75262536     -0.26932701
 H      0.58976761      0.04192877      1.20418319
 H      0.49889998     -0.88979167     -0.15851713
 H      2.53551274      0.07550206     -1.02444037
 H      2.47490223      1.62441342      1.64633208
 H      3.50466400      2.00582582      0.23438728
 H      2.61817114     -1.24914682      1.75218723
 H      4.49133634     -1.70252228     -0.65842047
 H      3.20555213     -3.51980385      1.46837306
 H      4.30230452     -4.03473885      0.07422278
