15

 N      0.83680530      0.12307710      0.13771420
 C      2.33072484      0.08921182      0.07790084
 C      3.10245691      1.07104586      0.95301912
 O      3.92124826      0.00251363      1.42932403
 C      3.01941782     -0.99559620      0.92367689
 C      3.63208210     -2.10382466      0.23648686
 C      4.12397075     -3.03213152     -0.34081594
 H      0.43312110     -0.70393276     -0.31206318
 H      0.45924514      0.94771114     -0.33653349
 H      0.50751462      0.14378312      1.10678813
 H      2.61827095      0.07651601     -0.97144808
 H      2.50370537      1.52533604      1.75550638
 H      3.67587467      1.84413128      0.44121493
 H      2.36935266     -1.36709303      1.73353044
 H      4.57465052     -3.85888573     -0.84345919
