15

N       1.29148628     -0.15329047      0.22651131
C       2.78540582     -0.18715575      0.16669795
C       3.55713789      0.79467829      1.04181623
O       4.37592924     -0.27385394      1.51812114
C       3.47409880     -1.27196377      1.01247400
C       4.08676308     -2.38019223      0.32528397
C       4.57865173     -3.30849909     -0.25201883
H       0.88780208     -0.98030032     -0.22326607
H       0.91392612      0.67134358     -0.24773638
H       0.96219560     -0.13258445      1.19558524
H       3.07295193     -0.19985156     -0.88265097
H       2.95838635      1.24896847      1.84430349
H       4.13055565      1.56776371      0.53001204
H       2.82403364     -1.64346060      1.82232755
H       5.02933150     -4.13525330     -0.75466208
