16
6135.log
N      1.461367   -0.000046   -1.464558
C      0.453189   -0.733186   -0.719982
C      0.717495   -0.987089    0.777692
O     -0.000385    0.000019    1.504396
C     -1.135292    0.336470    0.755821
C     -0.926002    1.428306   -0.236135
C     -0.887439   -0.014805   -0.672548
H      2.341262   -0.501527   -1.459928
H      1.632118    0.904588   -1.042815
H      0.319242   -1.691834   -1.229774
H      1.774835   -0.902316    1.040404
H      0.363026   -1.988019    1.063985
H     -2.083140    0.188258    1.262095
H     -0.004827    1.991900   -0.150774
H     -1.782413    2.008674   -0.558444
H     -1.683763   -0.364556   -1.315972
