17

N       1.35802208      0.08487330     -1.06608242
C       0.25220399     -0.76946476     -0.47312927
C       0.54150742     -1.03775093      1.00150564
O      -0.02253413      0.06968388      1.66818082
C      -1.22973305      0.37199113      1.01654491
C      -1.10365610      1.43228131     -0.00703756
C      -1.06255284     -0.02673915     -0.42457370
H       1.09121265      0.44732085     -1.98347488
H       2.23082370     -0.43676940     -1.16491299
H       1.53379700      0.88589747     -0.45421017
H       0.20725121     -1.66831625     -1.08785731
H       0.05089187     -1.97560894      1.28745038
H       1.60063726     -1.10779678      1.26533252
H      -2.13601705      0.19991919      1.58422310
H      -0.20754297      2.04252376      0.02652354
H      -1.99257132      1.97270259     -0.30742906
H      -1.88175958     -0.41269398     -1.01538755
