17

 N      0.97041028      0.07748704      0.21184786
 C      2.47081104      0.01366227      0.09034035
 C      3.15617143      1.15753837      0.84995649
 O      4.36611566      0.60571249      1.26248178
 C      4.10356085     -0.71699820      1.69753924
 C      3.02163321     -1.21482441      0.77279211
 C      2.62377151     -2.45972158      0.56331315
 H      0.53397252     -0.73070442     -0.23658918
 H      0.58592160      0.92259001     -0.21805282
 H      0.69466694      0.06402057      1.19739092
 H      2.68910856      0.03744285     -0.97930854
 H      2.53226665      1.46213667      1.71059251
 H      3.35970324      2.03681484      0.23846274
 H      5.02697816     -1.29118353      1.62872668
 H      3.76529235     -0.72046790      2.74364615
 H      1.85751290     -2.71976117     -0.16168690
 H      3.06519623     -3.29203295      1.09920361
