17

N       1.29268260      0.11317254      0.25660428
C       2.79308336      0.04934778      0.13509677
C       3.47844375      1.19322388      0.89471291
O       4.68838798      0.64139800      1.30723820
C       4.42583317     -0.68131269      1.74229566
C       3.34390553     -1.17913890      0.81754853
C       2.94604383     -2.42403607      0.60806957
H       0.85624484     -0.69501892     -0.19183276
H       0.90819392      0.95827551     -0.17329640
H       1.01693926      0.09970607      1.24214734
H       3.01138088      0.07312836     -0.93455212
H       2.85453897      1.49782218      1.75534893
H       3.68197556      2.07250035      0.28321916
H       5.34925048     -1.25549802      1.67348310
H       4.08756467     -0.68478239      2.78840257
H       2.17978522     -2.68407566     -0.11693048
H       3.38746855     -3.25634744      1.14396003
