17

 N      1.00584523      0.08762970     -0.19930409
 C      2.49332962      0.02257789     -0.00216131
 C      2.99040836      1.12728327      0.93028906
 O      4.18341195      0.61727813      1.45323651
 C      4.19471112     -0.75894136      1.39820450
 C      5.19444393     -1.47833661      1.87090250
 C      2.93574479     -1.23607901      0.72250381
 H      0.67578415     -0.68120852     -0.78729614
 H      0.72059495      0.96275488     -0.64601221
 H      0.51863643      0.02284301      0.69874016
 H      2.93768402      0.10505965     -0.99518151
 H      2.25738830      1.31377042      1.73271719
 H      3.20072741      2.07105173      0.42391022
 H      5.17985401     -2.55528867      1.78208448
 H      6.03910578     -1.00762560      2.35546088
 H      3.10853016     -2.08941559      0.06766962
 H      2.19109800     -1.52456932      1.47661002
