17

N       1.20862801     -0.05903378      0.25487421
C       2.69710092     -0.05837618     -0.04126258
C       3.02752280      1.18804307     -0.86200160
O       4.32276578      1.08259874     -1.34816660
C       4.48107123      0.04309623     -2.29055731
C       3.83894081     -1.22755120     -1.85939033
C       3.03446591     -1.29510886     -0.80457551
H       0.92413113      0.77589379      0.77257858
H       0.94529129     -0.87635666      0.80928501
H       0.67579451     -0.09297477     -0.61834201
H       3.18138283     -0.02293233      0.93953276
H       2.29535385      1.28856830     -1.68268577
H       2.98505324      2.09317304     -0.25085011
H       4.08858329      0.34894906     -3.27291010
H       5.55737612     -0.10302173     -2.40753195
H       4.07402440     -2.12128779     -2.42807475
H       2.64098629     -2.24780308     -0.45976607
