19

N       2.59055868     -1.20722692      0.58278231
C       2.40872671      0.27789600      0.36477575
C       2.90327090      1.05979532      1.55438390
C       2.65734465      2.56200712      1.41106731
C       2.71732548      3.01627034      2.86077892
O       2.22680493      1.92534388      3.63457407
C       2.16274532      0.76022486      2.86281425
H       2.27406103     -1.75133738     -0.22240340
H       2.06185657     -1.52096315      1.39973560
H       3.57386936     -1.43392752      0.74787267
H       1.34096508      0.43139597      0.19705573
H       2.94909924      0.52049672     -0.55099915
H       3.97892835      0.88761213      1.68722762
H       1.66119832      2.74183231      0.99495596
H       3.39014284      3.06194293      0.77703153
H       2.09679669      3.89155545      3.05702309
H       3.74487740      3.24280584      3.16558208
H       2.60703053     -0.06542739      3.43265730
H       1.10823865      0.50376707      2.65419888
