17

N       1.55482300      0.67355139      0.85636215
C       2.52931352     -0.26835341      0.16215992
C       2.93851419     -1.35034515      1.08328877
C       2.62498678     -2.63812690      0.98276315
C       3.29362311     -3.39692275      2.07480218
O       3.87076573     -2.40344496      2.90577342
C       3.86988676     -1.16060909      2.25303203
H       1.25746339      1.43725542      0.24512309
H       1.97894004      1.08311441      1.69116829
H       0.72494999      0.15876713      1.15929892
H       3.36542584      0.35822753     -0.15793455
H       2.01206100     -0.64648439     -0.71893285
H       2.01917727     -3.10066015      0.21259559
H       4.06158752     -4.07303288      1.67138634
H       2.59819168     -4.00214873      2.66554948
H       3.55014273     -0.38984219      2.97006845
H       4.87932273     -0.88105230      1.90951863
