15

 N     -0.46367045      0.55408206     -2.45232094
 C     -0.71723045     -0.62857913     -1.52594672
 C     -0.29317193     -0.27235832     -0.17498672
 C     -0.89377587     -0.29102068      1.01229357
 O     -0.01528768      0.00998372      1.98877823
 C      1.15527880      0.47878576      1.32873450
 O      1.04084955      0.05430059     -0.03114493
 H     -0.62496001      0.32345437     -3.43486936
 H      0.51003243      0.85156116     -2.34147462
 H     -1.05795319      1.34596880     -2.19750912
 H     -0.12591847     -1.44947730     -1.94146905
 H     -1.77582315     -0.87623671     -1.57440370
 H     -1.90104104     -0.54662790      1.30136676
 H      1.18047844      1.57499106      1.37231557
 H      2.03953361      0.03476361      1.78320995
