14
6213.log
N     -0.506594    0.541451   -2.446879
C     -0.705983   -0.597043   -1.556886
C     -0.274882   -0.280571   -0.181635
C     -0.892035   -0.270910    0.991785
O     -0.000081   -0.000304    2.007587
C      1.123917    0.512252    1.324186
O      1.068650    0.000319    0.007249
H     -0.702153    0.271995   -3.403218
H      0.464892    0.826865   -2.414338
H     -0.167295   -1.504177   -1.878120
H     -1.769345   -0.847286   -1.527249
H     -1.912188   -0.480698    1.263651
H      2.040248    0.182625    1.814369
H      1.059045    1.612633    1.287544
