17

N       2.79336952      1.17745569     -0.19761019
C       2.43360581     -0.27071525     -0.01457616
C       3.05122283     -1.12661807     -1.12089224
O       2.56525811     -2.42404941     -0.91370051
C       3.64630936     -3.35503688     -0.81724701
C       4.87202513     -2.51701663     -0.89648618
C       4.54629132     -1.24528502     -1.07531138
H       2.35202641      1.76784683      0.50991741
H       2.49562200      1.51593684     -1.11607434
H       3.80481365      1.31216460     -0.12976897
H       2.80021529     -0.57608626      0.96521448
H       1.34602953     -0.34047711     -0.03886598
H       2.70060315     -0.73998075     -2.09628411
H       3.56379103     -3.91099773      0.12274790
H       3.58496230     -4.07499881     -1.64147817
H       5.87414969     -2.92164348     -0.84439399
H       5.24244286     -0.43060769     -1.23752199
