19

N       1.02394574     -0.03683534      0.28551385
C       2.31999308     -0.69360197     -0.11612172
C       3.50588236      0.02149278      0.49035998
C       4.75296001     -0.80606531      0.23472947
C       5.99788263     -0.54544274      1.08521474
C       5.87417654     -2.02797206      1.45110394
O       4.59897189     -2.12216451      0.77166942
H       0.21605336     -0.51863685     -0.11443672
H       0.99192677      0.93755094     -0.02175903
H       0.91784767     -0.04093799      1.30235417
H       2.34354449     -0.69161130     -1.20667002
H       2.27288524     -1.72460213      0.23706868
H       3.37246102      0.11652269      1.57422331
H       3.62944378      1.02423047      0.06681572
H       4.96018776     -0.84336915     -0.84387778
H       5.83155015      0.13623495      1.91944180
H       6.89473466     -0.24671881      0.54729032
H       6.61525892     -2.67962980      0.98286487
H       5.78545736     -2.27507787      2.50990217
