19

 N      2.68643867      1.58802345     -0.11465441
 C      2.44519120      0.11204199      0.05746204
 C      3.24325949     -0.65987330     -0.97828708
 C      4.72928246     -0.46652370     -0.80930954
 O      5.10203395      0.90319895     -0.91551029
 C      5.48378770     -1.26257724      0.20417111
 C      5.70539155     -1.48867715     -1.26719385
 H      2.45496994      2.12085211      0.72259764
 H      2.14061308      1.96553826     -0.88892151
 H      3.70340217      1.69268046     -0.35695109
 H      2.77484805     -0.13975912      1.06621285
 H      1.37273426     -0.06580177     -0.01664046
 H      2.99676954     -1.71750308     -0.86428664
 H      2.92991040     -0.37691461     -1.99063161
 H      5.51317440      1.06340046     -1.77150941
 H      6.26503611     -0.74638208      0.74660042
 H      4.95496548     -2.02206501      0.76737888
 H      6.64110521     -1.13384693     -1.68301116
 H      5.32436597     -2.39443119     -1.72232128
