19

N       2.05054909      0.03862698     -1.72275208
C       1.03995853     -0.33569506     -0.66588568
C      -0.33869689      0.15629172     -1.05602070
C      -1.38129434     -0.19337480      0.00712698
C      -1.15486169      0.53608771      1.29878254
C      -1.29939951     -0.11279643      2.59620524
O      -0.00993943      0.12845292      2.04411380
H       2.98631228     -0.29468113     -1.48296803
H       2.10058431      1.05357588     -1.83323615
H       1.79974987     -0.35559786     -2.63202761
H       1.07653891     -1.42220029     -0.57699078
H       1.38828704      0.09480189      0.27177251
H      -0.31865178      1.24346016     -1.20076028
H      -0.63376217     -0.29149365     -2.01173829
H      -1.37981141     -1.27235075      0.18914376
H      -2.37137686      0.06118278     -0.38044252
H      -1.28880094      1.61720133      1.25910705
H      -1.59464768     -1.15758464      2.63866005
H      -1.54362720      0.48392565      3.46937748
