17

 N      0.73478045     -0.25837004      0.19415149
 C      2.23153695     -0.23946805      0.02751847
 C      2.89877508      0.15668432      1.30298005
 C      2.31339601      0.42823800      2.45922414
 C      2.68380186     -1.59681897     -0.46468927
 C      2.81760457     -1.87609184     -1.89775062
 O      3.93746209     -1.56706640     -1.08772728
 H      0.27333098     -0.52228413     -0.67828455
 H      0.39034306      0.66020980      0.48353795
 H      0.46233592     -0.93076885      0.91614864
 H      2.44013895      0.49602604     -0.75595926
 H      3.98011819      0.19667675      1.21358447
 H      1.23974496      0.41099396      2.62763820
 H      2.90577824      0.69383974      3.32564683
 H      2.53220841     -2.41982205      0.23563934
 H      2.76107945     -2.90481144     -2.24033368
 H      2.55274213     -1.11426668     -2.62819261
