15

 N      0.90820416     -0.18149703      0.13095428
 C      2.40360222      0.08548528      0.10449310
 C      2.82814576      0.39027880     -1.23485308
 C      3.21877061      0.67535946     -2.33685538
 C      3.73502360      1.01599665     -3.63287045
 C      2.85212014      1.52683848     -4.69313940
 O      3.70556250      2.38804838     -3.97749506
 H      0.57609467     -0.40217329      1.07300998
 H      0.67806626     -0.96291228     -0.48746543
 H      0.39897812      0.63744554     -0.20983726
 H      2.58189531      0.91315769      0.79533072
 H      2.88681110     -0.81030552      0.50123691
 H      4.63674590      0.47865992     -3.91803860
 H      3.13112840      1.33090146     -5.72447052
 H      1.79094060      1.64412411     -4.49283123
