21

N       0.79781497      0.53525959      0.98161477
C       2.27616302      0.25663389      1.10838822
C       2.86935713      1.02757933      2.26423476
C       4.35942113      0.74168011      2.41390645
C       4.97505598      1.48578025      3.58863120
C       6.45218619      1.16518795      3.76621708
O       6.98870064      1.74179931      4.92789661
H       0.37446048      0.01880457      0.20788570
H       0.62822682      1.53115611      0.82449478
H       0.30562069      0.27536590      1.83932826
H       2.72327306      0.53363457      0.15256667
H       2.37415279     -0.82212399      1.23862502
H       2.35431357      0.75656678      3.19391726
H       2.71673434      2.10296810      2.11234387
H       4.87721463      1.01449370      1.48706964
H       4.50879200     -0.33605229      2.54715024
H       4.45656819      1.22173013      4.51613971
H       4.84945282      2.56655636      3.45248145
H       7.01434358      1.46160029      2.86964356
H       6.57971521      0.08433711      3.87912329
H       7.15758475      2.67471121      4.77563444
