16

 N      0.91556462     -0.08558945     -0.15999609
 C      2.40420328     -0.22974346      0.09127123
 C      2.65197925     -0.61576445      1.51717022
 C      3.32207790      0.15479954      2.36157690
 C      2.89852583     -1.26846744     -0.87581043
 N      2.02993949     -1.93921607     -1.50453260
 O      2.53573063     -2.89251567     -2.31446624
 H      0.71027877      0.68753566     -0.79308662
 H      0.40318731      0.05559799      0.71035806
 H      0.62289931     -0.96270907     -0.63460045
 H      2.86525293      0.73885521     -0.11452987
 H      2.28837239     -1.59543092      1.81958816
 H      3.71991198      1.12116940      2.06774497
 H      3.50910349     -0.16266772      3.38027899
 H      3.96952858     -1.43544638     -0.96724938
 H      1.77065334     -3.30582539     -2.73212840
