16

N       0.93393047     -0.04379559     -2.00263408
C       0.81579208     -0.05894123     -0.50969026
C      -0.61234995      0.02474759     -0.06123165
C      -1.65935965      0.08682793     -0.88583064
C      -0.78151673      0.03176743      1.38213691
N       0.26397357     -0.02956759      2.10732981
O      -0.01723984     -0.01684077      3.42898072
H       1.91155662     -0.09225573     -2.29395593
H       0.52695893      0.81020629     -2.39136132
H       0.43868236     -0.83712547     -2.41646616
H       1.29020289     -0.97548463     -0.15610565
H       1.40011289      0.77985154     -0.12915901
H      -2.66541874      0.14506874     -0.48966120
H      -1.59452740      0.08352769     -1.96845954
H      -1.78223396      0.08731685      1.80825751
H       0.84080560     -0.06673847      3.86565164
