15
6270.log
N      0.996218   -0.000721   -2.585538
C      0.941570   -0.114501   -1.139960
C     -0.456943    0.006743   -0.603397
C     -1.536221    0.077704   -1.385446
C     -0.625085    0.041399    0.841155
N      0.378879   -0.041330    1.617868
O     -0.000569   -0.000547    2.943731
H      1.912364   -0.265171   -2.921454
H      0.840073    0.958149   -2.872142
H      1.571213    0.610754   -0.605270
H      1.328790   -1.098227   -0.853614
H     -1.444285    0.028706   -2.462631
H     -2.528670    0.165058   -0.957722
H     -1.633531    0.130755    1.249342
H      0.835077   -0.070292    3.413520
