18
6300.log
N      1.984651    0.000796   -2.676545
C      1.051085   -0.348203   -1.621092
C      0.190923    0.795595   -1.092984
C     -0.759534    0.383096    0.005944
O     -0.000196   -0.001500    1.137302
C     -0.684178   -0.409816    2.219627
C     -2.002177   -0.502594    2.373463
H      1.498836    0.417810   -3.461728
H      2.652742    0.687287   -2.347486
H      1.618612   -0.784473   -0.795280
H      0.397975   -1.145215   -1.994628
H     -0.402467    1.214894   -1.913919
H      0.833932    1.602136   -0.723319
H     -1.386330   -0.460706   -0.314133
H     -1.426948    1.209278    0.281101
H      0.001710   -0.675649    3.017350
H     -2.715039   -0.246773    1.601974
H     -2.389232   -0.852763    3.320098
