19

 N      2.02443433      0.04177514     -2.57294616
 C      0.99539568     -0.37753674     -1.55478521
 C      0.14474783      0.80051742     -1.13561999
 C     -0.79484754      0.40107296     -0.01310998
 O      0.00372966     -0.06813582      1.04168364
 C     -0.64354708     -0.44593090      2.17959636
 C     -1.94933887     -0.43438805      2.40089635
 H      2.61076688     -0.74344286     -2.86319042
 H      2.63821880      0.76442000     -2.19003434
 H      1.58275234      0.42857141     -3.40998220
 H      0.40737563     -1.17202449     -2.01645406
 H      1.54215573     -0.78905772     -0.70694373
 H      0.78365005      1.61602549     -0.77901937
 H     -0.44706753      1.17626295     -1.97617857
 H     -1.49408829     -0.37920602     -0.34312308
 H     -1.38597745      1.26873818      0.29983541
 H      0.07514215     -0.77283612      2.92110256
 H     -2.68536146     -0.10959468      1.67797847
 H     -2.31243674     -0.76489042      3.36378338
