18

 N      0.80003505      0.24547100     -0.05148525
 C      2.29793466      0.08908547     -0.11533737
 C      2.94558248      0.62295177      1.14299955
 C      4.45636885      0.54588502      1.03966283
 O      4.82778525      1.33689644     -0.06842117
 N      6.19766563      1.20460560     -0.27057563
 C      6.61628805      1.98031570     -1.17347797
 H      0.34558132     -0.10458846     -0.89733950
 H      0.54307239      1.22929265      0.05653052
 H      0.40877720     -0.26087311      0.74595161
 H      2.63359242      0.63444941     -0.99686928
 H      2.49308078     -0.97413466     -0.26260153
 H      2.62732107      0.04916318      2.01918359
 H      2.65598409      1.66804357      1.30051522
 H      4.91193656      0.92721567      1.95813865
 H      4.79539916     -0.48619181      0.89630669
 H      7.67545381      1.92881200     -1.39501794
 H      5.97190150      2.67361758     -1.71155740
