19

 N      3.17062968      0.14711700     -1.26840375
 C      2.19012997      0.12274797     -0.13242643
 C      2.75973373      0.99421265      0.96587593
 O      4.10730401      0.61294553      1.07601308
 C      4.77923503      1.19393841      2.16993204
 C      6.23091519      1.43407265      2.01195584
 C      5.27666441      2.59663078      2.05405431
 H      3.03378277     -0.61963147     -1.92647534
 H      4.10194653      0.07648305     -0.82880708
 H      3.13394889      1.02622103     -1.78653021
 H      2.12406676     -0.91550696      0.19192152
 H      1.21845131      0.46036647     -0.48937292
 H      2.20100772      0.80893200      1.89000285
 H      2.66964507      2.06261451      0.72680918
 H      4.40136772      0.84235914      3.12552960
 H      6.87136178      1.24472441      2.86293789
 H      6.67178713      1.19460021      1.05235434
 H      5.10238180      3.11740832      1.12022813
 H      5.24781467      3.22543300      2.93435398
