16
6461.log
O      0.000079   -0.000272    2.140789
C     -0.492523    0.035401    0.836915
C      0.201752    0.992032   -0.162201
C     -0.611580    0.729214   -1.436439
C     -0.607316   -0.824427   -1.377172
C      0.198535   -0.986166   -0.082363
N      1.303260    0.000225   -0.205978
H     -0.129826    0.861593    2.543397
H     -1.590209    0.039144    0.818195
H      0.450217    2.023658    0.093645
H     -0.113608    1.125775   -2.323786
H     -1.617637    1.154567   -1.398170
H     -0.099283   -1.283249   -2.227818
H     -1.610475   -1.252619   -1.313625
H      0.443562   -1.988497    0.267298
H      1.774561   -0.036242   -1.107876
