15

O       2.58933329      0.00883265     -0.00000013
C       1.43107036      0.19849479     -0.00000007
C       0.30029321      0.36058875      1.04299900
C      -0.48108707     -0.92585929      0.78150023
C      -0.48108719     -0.92585950     -0.78150077
C       0.30029305      0.36058848     -1.04299900
N      -0.33580116      1.28496046     -0.00000008
H       0.41858898      0.75781966      2.04684394
H      -1.48291584     -0.89088594      1.21157130
H       0.03892385     -1.78105288      1.21190030
H       0.03892366     -1.78105320     -1.21189970
H      -1.48291602     -0.89088627     -1.21157070
H       0.41858867      0.75781912     -2.04684406
H       0.05178273      2.22884925     -0.00000023
H      -1.35574122      1.32625105     -0.00000001
