15

 O      2.11250022     -0.03693826     -0.00000002
 C      0.95423729      0.15272388      0.00000005
 C     -0.17653986      0.31481785      1.04299912
 C     -0.95792014     -0.97163019      0.78150035
 C     -0.95792026     -0.97163041     -0.78150065
 C     -0.17654002      0.31481757     -1.04299888
 N     -0.81263423      1.23918955      0.00000004
 H     -0.05824409      0.71204876      2.04684406
 H     -1.95974891     -0.93665684      1.21157142
 H     -0.43790922     -1.82682378      1.21190042
 H     -0.43790941     -1.82682411     -1.21189958
 H     -1.95974909     -0.93665718     -1.21157058
 H     -0.05824440      0.71204821     -2.04684394
 H     -0.42505034      2.18307834     -0.00000011
 H     -1.83257429      1.28048015      0.00000011
