14
6465.log
O     -0.000168    0.000098    2.127133
C     -0.049696   -0.031437    0.938718
C     -0.877537    0.642625   -0.157058
C     -1.023205   -0.820261   -0.667845
C      0.448669   -0.952852   -0.179377
N      1.195185   -0.000186   -1.006594
C      0.253510    1.154768   -1.053676
H     -1.719112    1.296403    0.054442
H     -1.175803   -0.941704   -1.742566
H     -1.740600   -1.408548   -0.094900
H      0.948262   -1.899848    0.003551
H      1.325480   -0.382778   -1.934623
H     -0.094767    1.365311   -2.068614
H      0.721897    2.058191   -0.654964
