13

O       2.48090932      0.12889180     -0.00000000
C       1.33297771     -0.05800685      0.00000000
C       0.12791902     -0.19222190      1.04115200
N      -0.48138034     -1.11658438      0.00000000
C       0.12791902     -0.19222190     -1.04115200
C      -0.54072307      1.09680548     -0.67254800
C      -0.54072307      1.09680548      0.67254800
H       0.19516261     -0.55578126      2.06099800
H      -0.09085996     -2.06301054      0.00000000
H      -1.50572793     -1.13595459      0.00000000
H       0.19516261     -0.55578126     -2.06099800
H      -0.82200989      1.87386582     -1.36769700
H      -0.82200989      1.87386582      1.36769700
