13

 O      2.09636681      0.03526127     -0.00000000
 C      0.94843520     -0.15163738     -0.00000000
 C     -0.25662349     -0.28585243      1.04115200
 N     -0.86592285     -1.21021491      0.00000000
 C     -0.25662349     -0.28585243     -1.04115200
 C     -0.92526558      1.00317495     -0.67254800
 C     -0.92526558      1.00317495      0.67254800
 H     -0.18937990     -0.64941179      2.06099800
 H     -0.47540247     -2.15664107      0.00000000
 H     -1.89027044     -1.22958512      0.00000000
 H     -0.18937990     -0.64941179     -2.06099800
 H     -1.20655240      1.78023529     -1.36769700
 H     -1.20655240      1.78023529      1.36769700
