15

 O      0.97619288     -0.20979444     -0.42067794
 C      2.19752359      0.17803429      0.03313440
 C      3.46182097     -0.57208526     -0.52893876
 N      4.20211517      0.73650239     -0.23622645
 C      2.89243501      1.36701822     -0.71946536
 C      2.89615692      0.86162110     -2.14985193
 C      3.27019946     -0.41012730     -2.02427094
 H      0.37295448     -0.38508756      0.30664968
 H      2.23913674      0.29638194      1.12255207
 H      3.88768314     -1.47671853     -0.10419291
 H      4.41123544      0.89551931      0.75158489
 H      5.01816779      0.91834579     -0.82250124
 H      2.74354139      2.41773675     -0.48726070
 H      2.61797651      1.43259932     -3.02233410
 H      3.38775438     -1.18683369     -2.76426283
