17

 O      1.06180438     -0.05016208      0.29649180
 C      2.40044682     -0.22266552      0.01508624
 C      2.85425230     -0.49624922     -1.37594066
 C      3.00206188      0.89111707     -0.78977070
 C      4.33886152      1.41625787     -0.47104891
 C      4.81173359      2.71686917     -0.97066989
 N      4.38358349      2.62010472      0.44543510
 H      0.62860222     -0.90873545      0.34240260
 H      3.00625739     -0.63493379      0.82146513
 H      3.74559649     -1.09507816     -1.51961805
 H      2.09928815     -0.60010287     -2.14429392
 H      2.28526574      1.62142498     -1.15448023
 H      5.10234409      0.69590628     -0.19592609
 H      4.14979109      3.31297531     -1.58660403
 H      5.87082611      2.90066068     -1.09756870
 H      3.49193919      3.02896024      0.70554755
 H      5.09144627      2.66949162      1.16939415
