17

O       0.93817501     -0.32286048      0.35149084
C       2.27966922     -0.46694002      0.09409682
C       2.79140424     -0.61808891     -1.31338150
C       2.89745195      0.69164922     -0.60155204
N       4.19620845      1.19110298     -0.17016437
C       4.82395467      2.36312165     -0.82154582
C       4.31891958      2.47430504      0.55689352
H       0.50985483     -1.18545055      0.34522443
H       2.87193503     -0.95272424      0.87074969
H       3.68507126     -1.21522965     -1.45748891
H       2.07565602     -0.66029755     -2.12457309
H       2.23592245      1.49655374     -0.89829105
H       4.84366131      0.46612666      0.12287997
H       4.23811845      2.76893118     -1.63600763
H       5.88822512      2.27124072     -0.99614660
H       3.36815830      2.95911123      0.73704804
H       5.01586327      2.46354655      1.38491270
