15

O      -0.00835157      0.03981836      2.58249450
C      -0.02991298     -0.06088859      1.40299360
C      -0.57465412     -1.17182318      0.50039380
C      -0.29658076     -0.50010649     -0.83653918
C      -0.72814873      0.96359505     -0.61795042
C       0.46622766      0.96015350      0.36119575
N       1.14010280      0.00255811     -0.61627040
H      -0.05778945     -2.12296330      0.64904621
H      -1.64064481     -1.33622805      0.66575404
H      -0.46243429     -1.04379016     -1.76207265
H      -0.56524533      1.60465844     -1.48558787
H      -1.71603906      1.13411369     -0.19572464
H       1.02977940      1.83008960      0.68417190
H       1.83884059     -0.64957443     -0.25397015
H       1.51139637      0.48649959     -1.43429806
