15

O       1.66895280      0.04154237      1.84076554
C       2.29443174      0.01097357      0.83051110
C       2.75482100     -1.25944172      0.10482786
C       3.76882540     -0.78873869     -0.89131172
N       4.91554761     -0.04927955     -0.27771488
C       3.78930344      0.69422656     -0.92350546
C       2.78927348      1.23551463      0.05066475
H       3.11299575     -2.01798843      0.80332021
H       1.90227265     -1.69355396     -0.42814261
H       4.05574121     -1.38674760     -1.74683363
H       5.00277869     -0.02849764      0.73506482
H       5.80592226     -0.07212682     -0.76378973
H       4.09210202      1.24640501     -1.80399684
H       1.94871197      1.66945712     -0.50115034
H       3.16866569      2.01347944      0.71580092
