15

O       0.08738836     -0.08622586      2.60569194
C      -0.02686334     -0.01748369      1.42583485
C      -0.97882224      0.83614096      0.60574095
C      -1.05806810      0.18267811     -0.77858179
C       0.14093712     -0.73288340     -0.87679876
N       1.43571756     -0.05304946     -0.59604501
C       0.77160886     -0.88347962      0.44742474
H      -1.94134076      0.89289774      1.11428560
H      -0.59983887      1.86400361      0.57684086
H      -1.94363037     -0.45132091     -0.85938793
H      -1.09782087      0.89207192     -1.60662593
H       0.21095621     -1.49213786     -1.64578955
H       1.45517895      0.95717033     -0.48470461
H       2.27644453     -0.43541467     -1.01751095
H       1.33534225     -1.74109005      0.79079129
