13

 O      0.03661389      0.00979995      2.15434937
 C     -0.14015314      0.02374543      0.97826863
 C     -1.13894611      0.77518586      0.17551567
 C     -1.03797833      0.45881729     -1.11677968
 C      0.05815309     -0.53326527     -1.34660840
 N      1.40486112      0.04112758     -1.01467621
 C      0.66475848     -0.80724684     -0.04073136
 H     -1.82321929      1.48448783      0.62117475
 H     -1.63354998      0.85082873     -1.93069289
 H      0.05852512     -1.22689138     -2.17760396
 H      1.46094170      1.04341586     -0.84430581
 H      2.23233503     -0.36171644     -1.44808755
 H      1.15774797     -1.72594092      0.24831165
