15

 O      1.13964763     -0.36370777      0.12214086
 C      2.48548223      0.01274826     -0.02757996
 C      2.83197452      1.29188573      0.70563178
 C      3.70289948      1.09874209      1.69126119
 C      4.07582678     -0.33927411      1.76168657
 N      2.88645692     -1.20576869      2.09793825
 C      3.33201144     -1.02563451      0.69567631
 H      0.58148989      0.11107510     -0.50152043
 H      2.78562065      0.05019599     -1.08132427
 H      2.36066627      2.23557476      0.46044123
 H      4.09206637      1.83932902      2.37652787
 H      5.01145986     -0.69997491      2.16861372
 H      3.03757937     -2.11339105      2.52610866
 H      2.01535939     -0.74376449      2.35366630
 H      3.66302581     -1.93139949      0.20645815
