19

O       0.13162249      0.02853049      1.94549671
C      -0.42335253     -0.80416838      0.94432779
C      -1.42357759     -0.06392615      0.06395552
C      -0.77302979      1.13251697     -0.62205410
C       0.50377470      0.74925839     -1.34182911
N       1.41308505      0.01289625     -0.40126644
C       0.78351403     -1.23373410      0.13449889
H      -0.53513089      0.27214108      2.59430352
H      -0.87902490     -1.70070129      1.37821734
H      -1.82608192     -0.76296086     -0.67669065
H      -2.27190192      0.26693192      0.66783708
H      -1.45264713      1.57548917     -1.35230978
H      -0.55356484      1.91332604      0.11133481
H       0.31833077      0.07277742     -2.17896900
H       1.04814305      1.61932135     -1.71047535
H       1.60895729      0.60642419      0.41278839
H       2.30131877     -0.19847569     -0.85502881
H       1.51934442     -1.73573933      0.76242999
H       0.51652079     -1.86974862     -0.70907620
