16
6506.log
O      0.000147    0.000210    2.248892
C     -0.075693   -0.192400    1.060322
C     -1.344955    0.036711    0.274512
C     -1.084427    0.741805   -1.056704
C      0.070243    0.083391   -1.800221
N      1.289876    0.000008   -1.017104
C      1.098760   -0.699621    0.243935
H     -2.056159    0.572554    0.905037
H     -1.766722   -0.958158    0.074764
H     -0.835062    1.792692   -0.869445
H     -1.991747    0.739223   -1.669310
H      0.288668    0.622954   -2.725550
H     -0.210430   -0.937128   -2.090586
H      1.646112    0.931295   -0.836020
H      2.002098   -0.639205    0.852618
H      0.920389   -1.762310    0.026856
