17

 O      0.00006996     -0.05749282      2.25700910
 C     -0.09060566     -0.17293827      1.07122992
 C     -1.34110497      0.06910047      0.27296101
 C     -1.06087168      0.74703808     -1.06655711
 C      0.02718000      0.04318025     -1.84394713
 N      1.28884942      0.01787624     -1.02794619
 C      1.13043394     -0.67665995      0.29088238
 H     -1.79984034     -0.91408270      0.10134601
 H     -2.03673265      0.64397184      0.88411542
 H     -1.96332581      0.75945334     -1.68041700
 H     -0.78494194      1.79659241     -0.91428138
 H     -0.22349409     -0.99800280     -2.05799753
 H      0.26129580      0.54718720     -2.78239975
 H      1.59106932      0.98102281     -0.86201485
 H      2.04059940     -0.42627498     -1.55925345
 H      2.03266903     -0.52846470      0.88268262
 H      1.00656692     -1.74256316      0.08181390
