17

 O      2.25403551      0.00483198      0.00000003
 C      1.07841653     -0.20901741     -0.00000003
 C      0.27616649     -0.37314985      1.27912893
 C     -1.02958433      0.39787129      1.24946507
 N     -1.79810639      0.07618158     -0.00000000
 C     -1.02958431      0.39787176     -1.24946493
 C      0.27616651     -0.37314937     -1.27912907
 H      0.08038253     -1.44363000      1.42241873
 H      0.87904385     -0.04091299      2.12461300
 H     -1.66882656      0.16017057      2.10052501
 H     -0.86196287      1.47648883      1.23379027
 H     -2.04442123     -0.91675623     -0.00000019
 H     -2.68025664      0.59149505      0.00000008
 H     -0.86196284      1.47648930     -1.23378973
 H     -1.66882651      0.16017136     -2.10052499
 H      0.87904390     -0.04091219     -2.12461300
 H      0.08038257     -1.44363047     -1.42241927
