16
6527.log
O      2.255672    0.000445    0.000000
C      1.069626   -0.219373    0.000000
C      0.269704   -0.367707    1.271659
C     -1.038143    0.415877    1.198989
N     -1.760910    0.044027   -0.000000
C     -1.038143    0.415877   -1.198989
C      0.269704   -0.367706   -1.271659
H      0.886650   -0.056080    2.115299
H      0.031347   -1.431592    1.386707
H     -0.806463    1.495653    1.232797
H     -1.653940    0.189461    2.072588
H     -2.683907    0.456747   -0.000000
H     -0.806463    1.495653   -1.232797
H     -1.653940    0.189461   -2.072588
H      0.886650   -0.056080   -2.115299
H      0.031347   -1.431592   -1.386707
