15

O       2.59829672      0.03252235      0.00000000
C       1.41580344     -0.01185282      0.00000000
C       0.52129337     -1.27140832     -0.00000000
N      -0.79734395     -0.56307442     -0.00000000
C      -0.61048652      0.52723877      1.04044200
C       0.37596345      1.10272367      0.00000000
C      -0.61048652      0.52723877     -1.04044200
H       0.63633606     -1.88090418     -0.89610500
H       0.63633606     -1.88090418      0.89610500
H      -1.63165419     -1.14847276     -0.00000000
H      -1.52888373      1.10228125      1.14320500
H      -0.24491403      0.16460461      2.00012200
H       0.71663405      2.13101568      0.00000000
H      -0.24491403      0.16460461     -2.00012200
H      -1.52888373      1.10228125     -1.14320500
