14
6543.log
O      2.182985   -0.000424   -0.000000
C      0.986313   -0.049405    0.000000
C      0.059029   -1.271731    0.000000
N     -1.268195   -0.621161   -0.000000
C     -1.032329    0.461718    1.016265
C     -0.034029    1.064969    0.000000
C     -1.032329    0.461718   -1.016265
H      0.199084   -1.892847    0.887154
H      0.199084   -1.892847   -0.887154
H     -0.664600    0.120469    1.986554
H     -1.932640    1.064992    1.140229
H      0.333649    2.088119    0.000000
H     -0.664600    0.120469   -1.986554
H     -1.932640    1.064992   -1.140229
