13

O       0.72400044     -0.20151553      0.61443641
C       1.86177269     -0.22832781      0.33519588
C       2.90202780      0.82185345     -0.05863500
N       3.90635522     -0.29118679     -0.27251278
C       2.91322281     -1.37555059      0.21624056
C       2.68891561     -2.43042033     -0.72049043
C       2.46404911     -3.30279686     -1.51161933
H       2.69873180      1.38269116     -0.97054485
H       3.20380935      1.49517123      0.74403432
H       4.76078088     -0.21975641      0.27915240
H       4.16238264     -0.43407249     -1.25007762
H       3.23319997     -1.73250410      1.20074749
H       2.26241768     -4.08665794     -2.20941191
