13

 O      1.13594763     -0.01600161      0.53687165
 C      2.27371988     -0.04281389      0.25763112
 C      3.31397499      1.00736737     -0.13619976
 N      4.31830241     -0.10567287     -0.35007754
 C      3.32517000     -1.19003667      0.13867580
 C      3.10086280     -2.24490641     -0.79805519
 C      2.87599630     -3.11728294     -1.58918409
 H      3.11067899      1.56820508     -1.04810961
 H      3.61575654      1.68068515      0.66646956
 H      5.17272807     -0.03424249      0.20158764
 H      4.57432983     -0.24855857     -1.32764238
 H      3.64514716     -1.54699018      1.12318273
 H      2.67436487     -3.90114402     -2.28697667
