17

O       0.85454426     -0.00827964      0.48734573
C       2.19494382      0.08335566      0.19025913
C       2.90839985      1.23215505      0.91571376
N       4.02592938      0.29185916      1.29978311
C       3.12682944     -0.91125526      0.94119905
C       3.80179116     -2.02213407      0.24388939
C       3.79384719     -3.26791093      0.70076197
H       0.34986932     -0.32676816     -0.26599638
H       2.39913628      0.08348441     -0.88513160
H       2.36683260      1.53240284      1.81145371
H       3.24716049      2.10131773      0.35682924
H       4.36065353      0.33596840      2.26081887
H       4.83331445      0.35736941      0.68091122
H       2.64194556     -1.22630475      1.86655309
H       4.27490434     -1.79158601     -0.70932488
H       3.31212722     -3.53082314      1.63716268
H       4.25819069     -4.07368657      0.14520548
