14
6558.log
O      0.000289    0.000653    2.189812
C      0.067751   -0.015783    0.990373
C      1.209719   -0.613736    0.178012
N      1.109140    0.000152   -1.137548
C     -0.221660    0.531984   -1.307184
C     -1.388002   -0.357971   -1.055579
C     -0.893590    0.581846    0.031818
H      1.093263   -1.707236    0.182553
H      2.159947   -0.387385    0.667595
H      1.352737   -0.638628   -1.882267
H     -0.316368    1.356568   -2.003979
H     -1.220831   -1.421851   -0.930899
H     -2.343193   -0.095585   -1.493190
H     -1.528232    1.390560    0.365662
