14
6562.log
O      0.000234   -0.000417    2.272751
C     -0.037177    0.029776    1.062538
C      1.111366    0.571295    0.231522
N      1.213785    0.000145   -1.097973
C     -0.034809    0.072122   -1.827243
C     -1.241271   -0.318877   -1.033440
C     -1.223501   -0.390436    0.299855
H      2.042082    0.423127    0.781340
H      0.965243    1.656842    0.143699
H      1.496765   -0.969576   -1.021854
H      0.040472   -0.552943   -2.721824
H     -0.177246    1.098372   -2.199997
H     -2.155325   -0.537374   -1.581567
H     -2.089001   -0.697996    0.876943
