15
6565.log
O      0.000054   -0.000164    2.274295
C     -0.006963   -0.003108    1.058834
C      1.238855    0.331230    0.256328
N      1.217027    0.000141   -1.155278
C     -0.055346    0.350756   -1.749621
C     -1.221838   -0.370154   -1.097615
N     -1.130171   -0.260789    0.343015
H      2.079924   -0.158786    0.748466
H      1.400632    1.409713    0.375517
H      1.397740   -0.988459   -1.283085
H     -0.037522    0.128479   -2.819207
H     -0.187635    1.433450   -1.644971
H     -1.219753   -1.425789   -1.404518
H     -2.170589    0.061967   -1.432271
H     -1.928854   -0.514305    0.904332
