14

O      -0.02556209      0.03273900      2.62562299
C       0.09766493      0.10039196      1.44078215
N       1.22611742      0.00156251      0.67914684
C       1.07968894      0.38026428     -0.70703304
C      -0.41806792      0.40978762     -0.88888038
N      -1.08546809     -0.86468589     -0.50766889
C      -1.04115858      0.28404171      0.43696858
H       2.12757409     -0.10262362      1.12044787
H       1.46834085      1.38337057     -0.91254744
H       1.57029892     -0.32031707     -1.38824640
H      -0.87158461      0.91980405     -1.72825112
H      -0.51190300     -1.67785176     -0.29337811
H      -1.97562625     -1.07917394     -0.94692261
H      -1.99458261      0.69035257      0.74522155
