12
6609.log
O     -0.000136   -0.000133    2.139402
C      0.057862    0.057412    0.950623
O      1.238044   -0.000610    0.273147
C      1.066977    0.375222   -1.093272
C     -0.416572    0.344676   -1.353908
N     -1.099996   -0.885658   -1.039773
C     -1.059142    0.174458   -0.032582
H      1.629345   -0.327924   -1.713072
H      1.474870    1.379738   -1.236716
H     -0.838585    0.951034   -2.146059
H     -0.451101   -1.635421   -0.815507
H     -2.000772    0.600117    0.285619
