19

 O      0.11827272      0.06611044      2.37598390
 C     -0.87473434     -0.05505440      1.38428532
 C     -0.19815523     -0.70329643      0.19192192
 C     -0.96749960     -0.57797920     -1.12812292
 C     -0.01949742      0.13927198     -2.09758938
 C      0.87231078      0.96668879     -1.19454420
 N      1.10493309      0.04039780     -0.04279666
 H     -0.24868429      0.42984338      3.18693497
 H     -1.70835507     -0.69280438      1.69638448
 H     -1.28328150      0.92572466      1.10526775
 H      0.07145084     -1.72886349      0.44487093
 H     -1.27571963     -1.55150477     -1.50589445
 H     -1.87331633      0.01135500     -0.96992213
 H     -0.54615191      0.75913013     -2.82183041
 H      0.58125280     -0.57978460     -2.66097879
 H      0.36315100      1.84896493     -0.80495099
 H      1.82690341      1.26746148     -1.62388127
 H      1.36715522      0.49925202      0.83864622
 H      1.84727374     -0.61885487     -0.27190585
