17

 O      2.20363323      0.52857165      1.25137160
 C      1.90236960     -0.30392287      0.46016563
 C      2.94200474     -1.20265328     -0.21481461
 C      4.14739105     -1.50280139      0.65872102
 C      3.72652806     -2.75167976      1.42440446
 C      3.02874378     -3.58754618      0.37133084
 N      2.31885054     -2.56006918     -0.49813993
 H      0.84546746     -0.46051207      0.14184796
 H      3.19179021     -0.73707592     -1.17255449
 H      4.35344240     -0.64879688      1.30414296
 H      5.03148002     -1.69276581      0.04694135
 H      4.56875254     -3.29007555      1.85731498
 H      3.04186917     -2.49808362      2.23814809
 H      3.73860919     -4.10618267     -0.27254822
 H      2.29502662     -4.30089903      0.74303106
 H      2.39368263     -2.80845231     -1.48339453
 H      1.31793652     -2.53928871     -0.28688826
