17

O       2.09648039      0.93003314      1.35824642
C       1.79521676      0.09753862      0.56704045
C       2.83485190     -0.80119178     -0.10793979
C       4.04023821     -1.10133989      0.76559584
C       3.61937523     -2.35021826      1.53127928
C       2.92159095     -3.18608468      0.47820566
N       2.21169771     -2.15860768     -0.39126511
H       0.73831462     -0.05905058      0.24872278
H       3.08463737     -0.33561442     -1.06567967
H       4.24628956     -0.24733538      1.41101778
H       4.92432718     -1.29130431      0.15381617
H       4.46159971     -2.88861405      1.96418980
H       2.93471634     -2.09662213      2.34502291
H       3.63145636     -3.70472117     -0.16567340
H       2.18787379     -3.89943754      0.84990588
H       2.28652980     -2.40699081     -1.37651971
H       1.21078369     -2.13782722     -0.18001344
