19

O       3.16044492     -1.06246183     -0.88327725
C       2.58151201      0.04272259     -0.23631402
C       2.96829884     -0.06853104      1.22281429
C       2.29609458      0.93253019      2.15519088
C       2.52482597      0.34129454      3.53220515
N       2.48482944     -1.16182661      3.30365753
C       2.55148888     -1.40950986      1.80703746
H       3.03409106     -0.99082591     -1.83310527
H       1.48448363      0.03492781     -0.32658944
H       2.94462772      0.99541943     -0.63970256
H       4.05735296      0.02937892      1.29745815
H       1.22641100      1.00375939      1.93580220
H       2.71799791      1.93499251      2.08643854
H       1.78274882      0.60624353      4.28307690
H       3.51656355      0.57821659      3.91604867
H       3.26207568     -1.61489905      3.78112480
H       1.63563560     -1.56670751      3.69379300
H       3.23505503     -2.23017507      1.60406882
H       1.55041111     -1.69211233      1.47862601
