15

O       2.68927701      2.20221157      1.00966664
C       2.64288039      1.12305791      1.53484980
C       2.28331180     -0.07607040      0.75558241
C       2.21925988     -1.33664365      1.17462839
C       1.86272975     -2.27235887      0.07097226
N       1.42744368     -1.32455345     -1.02661606
C       1.98330447      0.04502310     -0.70528588
H       2.86239542      0.96861156      2.60622738
H       2.42420805     -1.68689031      2.17833814
H       2.72002059     -2.85281622     -0.28198317
H       1.04968416     -2.96379081      0.29675514
H       1.71982855     -1.64836584     -1.94845361
H       0.40850138     -1.27569557     -1.04134084
H       1.24957476      0.81191212     -0.95226485
H       2.87982155      0.21832172     -1.30470359
