17

 O      2.15888764      0.75461247      1.41592146
 C      2.08464444      0.11801036      0.16506542
 C      2.54794983      1.12685251     -0.84837319
 N      2.20850387      2.52674813     -0.50072259
 C      3.64792542      2.06607234     -0.55433679
 C      4.49239775      2.63684447     -1.61088154
 C      5.70749307      3.10470271     -1.36096777
 H      1.85569231      0.16788509      2.11425541
 H      2.74041654     -0.75801348      0.09789951
 H      1.06203740     -0.19599051     -0.07500941
 H      2.36713175      0.88407299     -1.88981748
 H      1.81515858      2.64106102      0.43211402
 H      1.87487044      3.16206196     -1.21638876
 H      4.06370373      2.01932182      0.44603917
 H      4.09926465      2.62620285     -2.62501995
 H      6.12593023      3.10851576     -0.35995326
 H      6.33257202      3.49049405     -2.15661678
