17

O       2.17670761      0.78250448      1.44688392
C       2.10246441      0.14590237      0.19602788
C       2.56576980      1.15474452     -0.81741073
N       2.22632384      2.55464014     -0.46976013
C       3.66574539      2.09396435     -0.52337433
C       4.51021772      2.66473648     -1.57991908
C       5.72531304      3.13259472     -1.33000531
H       1.87351228      0.19577710      2.14521787
H       2.75823651     -0.73012147      0.12886197
H       1.07985737     -0.16809850     -0.04404695
H       2.38495172      0.91196500     -1.85885502
H       1.83297855      2.66895303      0.46307648
H       1.89269041      3.18995397     -1.18542630
H       4.08152370      2.04721383      0.47700163
H       4.11708462      2.65409486     -2.59405749
H       6.14375020      3.13640777     -0.32899080
H       6.35039199      3.51838606     -2.12565432
