13

O      -0.29061447     -0.22402516      2.51606687
C       0.69382463     -0.31819205      1.84395116
C       0.54391342     -0.43627763      0.34149032
N      -0.86226522     -0.58510248     -0.03149379
C      -0.18482187      0.67128839     -0.35109811
C       0.03565113      0.80129827     -1.84378837
O      -0.22004697     -0.13049091     -2.54796530
H       1.71734240     -0.30930956      2.24742625
H       1.24648315     -1.02907041     -0.23488929
H      -1.08156272     -1.15335680     -0.85586168
H      -1.49828561     -0.59367683      0.77247348
H      -0.49277358      1.53070474      0.23504032
H       0.44259473      1.75606972     -2.20978557
