12
6666.log
O     -0.000253    0.000058    2.580659
C      0.780436   -0.339649    1.729336
C      0.383073   -0.547268    0.314969
N     -1.022445   -0.600739    0.005783
C     -0.308309    0.616436   -0.338402
C     -0.054166    0.860149   -1.789117
O      0.248285    0.000168   -2.567000
H      1.847705   -0.516106    1.965174
H      1.030424   -1.146500   -0.317390
H     -1.535808   -0.434587    0.871688
H     -0.472815    1.495340    0.278778
H     -0.148409    1.918615   -2.109660
