15

 O      2.94545132     -0.58543190     -1.13001979
 C      2.37090208     -0.02662806      0.02224578
 C      2.87273522     -0.85449427      1.17415774
 N      3.14878937     -2.26429453      0.82745458
 C      4.26620337     -1.35323680      1.19171717
 C      4.93902568     -1.61341868      2.51284516
 O      6.03672496     -1.21490677      2.73030034
 H      2.68058908     -0.10097348     -1.91730187
 H      1.27558859     -0.06598727     -0.00082546
 H      2.67844348      1.01191908      0.19079931
 H      2.36972595     -0.73120906      2.12785031
 H      3.06695955     -2.46786311     -0.16982951
 H      2.88523321     -3.00906109      1.46599711
 H      4.91084456     -1.10817873      0.35560766
 H      4.33420174     -2.16235820      3.26828753
