15

O       3.35714230     -0.61270147     -0.92634824
C       2.78259306     -0.05389763      0.22591733
C       3.28442620     -0.88176384      1.37782929
N       3.56048035     -2.29156410      1.03112613
C       4.67789435     -1.38050637      1.39538872
C       5.35071666     -1.64068825      2.71651671
O       6.44841594     -1.24217634      2.93397188
H       3.09228006     -0.12824305     -1.71363032
H       1.68727957     -0.09325684      0.20284609
H       3.09013446      0.98464951      0.39447086
H       2.78141693     -0.75847863      2.33152186
H       3.47865053     -2.49513268      0.03384204
H       3.29692419     -3.03633066      1.66966866
H       5.32253554     -1.13544830      0.55927920
H       4.74589272     -2.18962777      3.47195908
