13

 O      1.85814225      0.16610287      1.33579790
 C      2.02635664     -0.19384714      0.20661649
 C      3.08600015     -1.24676061     -0.08256860
 N      3.71364310     -1.64432029      1.22386355
 C      3.17927839     -3.06100779      1.13828031
 C      2.55138895     -2.70174471     -0.20832242
 O      1.92452354     -3.27198232     -1.01938223
 H      1.43987446      0.16858922     -0.65038604
 H      3.79532856     -0.93824302     -0.85308964
 H      3.27377222     -1.06267653      1.95948265
 H      4.72749255     -1.56224614      1.27424216
 H      3.97436480     -3.80584525      1.09839013
 H      2.48140454     -3.28624479      1.94578245
