15

 O      1.05334714      0.14021018      0.06250102
 C      2.40909077     -0.16129913      0.10060115
 C      2.70173622     -0.77234895     -1.26152582
 N      4.18758461     -0.97229343     -1.57180588
 C      3.99371927     -2.45360495     -1.84809615
 C      2.52016592     -2.28394184     -1.45487325
 O      1.62108008     -3.03018486     -1.32234405
 H      0.67937107      0.14154857      0.94829649
 H      3.03338961      0.73791155      0.22578358
 H      2.66697026     -0.87059589      0.89851603
 H      2.23122039     -0.17035852     -2.04299176
 H      4.53157297     -0.43100384     -2.36366962
 H      4.79538388     -0.78368967     -0.77442809
 H      4.60853437     -3.08345088     -1.20559346
 H      4.16696152     -2.69276795     -2.89748713
