15

 O      2.13071863      1.01735392     -0.74212079
 C      1.92149257     -0.07074258     -0.31970863
 C      3.05802193     -1.07281813     -0.10134320
 N      2.53012401     -2.48701253      0.00494866
 C      3.17800349     -3.15947378      1.19940185
 C      3.77484385     -2.00499160      1.92821888
 C      3.72912954     -0.88496129      1.22524625
 H      0.90449027     -0.41217310     -0.01280475
 H      3.75191327     -1.00317434     -0.94415782
 H      2.68689618     -3.01174779     -0.85517507
 H      1.51670643     -2.45082136      0.14519986
 H      3.92702878     -3.86897837      0.83872497
 H      2.41840090     -3.71163328      1.75446354
 H      4.22265167     -2.12363919      2.90574503
 H      4.12352446      0.08025589      1.51239322
