19

O       3.14887102     -1.94139971     -1.41718200
C       2.41756168     -0.77265121     -1.73862575
C       3.09571088      0.38425150     -1.03670198
C       4.56286530      0.47876107     -1.39191440
C       5.43113369      1.48945892     -0.62593483
N       6.52539473      0.44746384     -0.49875926
C       5.50314999     -0.62105645     -0.87400456
H       2.69372001     -2.71179991     -1.76659303
H       1.37838479     -0.84548154     -1.40105699
H       2.40861797     -0.60345594     -2.82365033
H       2.98903851      0.26287226      0.04700876
H       2.58980244      1.31452613     -1.31080838
H       4.68752124      0.60841209     -2.47078153
H       5.05384724      1.71673688      0.37083525
H       5.76606335      2.39897564     -1.11994043
H       7.25142129      0.55753465     -1.20473255
H       6.97670800      0.35922199      0.41015474
H       5.89570892     -1.36180926     -1.56423663
H       5.15020796     -1.10171524      0.03560763
