17

O       2.42752831     -1.06659903      0.39824911
C       1.99274793     -0.31363724     -0.42499922
C       2.68058296      0.98117376     -0.79170629
C       3.90572036      1.21622402      0.07552839
C       4.70107902      2.42538608     -0.29774808
C       6.13315002      2.54040768      0.01465719
N       5.72493234      2.25811516     -1.38394931
H       1.05641229     -0.52891018     -0.97440844
H       1.95088675      1.79395906     -0.69835457
H       2.92456729      0.92641002     -1.86105924
H       4.54366713      0.32589296      0.08024460
H       3.59776006      1.34598494      1.11763645
H       4.15996304      3.35860683     -0.42058626
H       6.58406757      3.51455840      0.15294037
H       6.63405680      1.70983852      0.49669590
H       5.84046788      2.98985616     -2.07633914
H       5.88365297      1.32125214     -1.74001932
