17

 O      2.65081489     -0.75658695      0.25234100
 C      2.21603451     -0.00362516     -0.57090733
 C      2.90386954      1.29118584     -0.93761440
 C      4.12900694      1.52623610     -0.07037972
 C      4.92436560      2.73539816     -0.44365619
 C      6.35643660      2.85041976     -0.13125092
 N      5.94821892      2.56812724     -1.52985742
 H      1.27969887     -0.21889810     -1.12031655
 H      2.17417333      2.10397114     -0.84426268
 H      3.14785387      1.23642211     -2.00696735
 H      4.76695371      0.63590504     -0.06566352
 H      3.82104664      1.65599702      0.97172834
 H      4.38324962      3.66861891     -0.56649437
 H      6.80735415      3.82457048      0.00703226
 H      6.85734338      2.01985060      0.35078778
 H      6.06375446      3.29986824     -2.22224725
 H      6.10693955      1.63126422     -1.88592744
