13

O      -0.31098582     -0.18260509      1.80232165
C      -0.71042552     -0.33211505      0.67212024
C      -2.04959258     -0.60714387      0.28753020
C      -3.17294772     -0.84068582     -0.07051877
C       0.29736970     -0.18137379     -0.45558513
C       1.03279324      1.10172430     -0.51130209
N       1.65379741     -0.07975848      0.10925377
H      -4.17834956     -1.04877563     -0.36903915
H       0.19654083     -0.77977470     -1.35264127
H       0.77523158      1.87934901      0.19742578
H       1.48204017      1.41321796     -1.44537168
H       2.42954191     -0.54557713     -0.34936342
H       1.62536006     -0.11344028      1.13633159
