17

 O      0.08588279     -0.02685212      1.50049185
 C     -0.31012070     -0.50567122      0.22789180
 C     -1.62092409      0.04759625     -0.23141699
 C     -2.64707853     -0.72035491     -0.56758793
 C      0.80249351     -0.07507080     -0.70265280
 C      1.44938778      1.23665767     -0.55526796
 N      2.13549025      0.02575613     -0.04863699
 H     -0.62234928     -0.16549574      2.13705739
 H     -0.35218456     -1.60259647      0.22290060
 H     -1.70113439      1.13176320     -0.25870376
 H     -2.58535296     -1.80374225     -0.53458466
 H     -3.58975743     -0.29350511     -0.88780345
 H      0.82976164     -0.54988472     -1.67585818
 H      1.92823141      1.69245885     -1.41173696
 H      1.12092890      1.89718193      0.23613377
 H      2.10010533     -0.10501483      0.96233247
 H      2.96341599     -0.31586452     -0.52233286
