15

O       0.92202108      0.05188099     -0.07758439
C       2.28394705     -0.20038880      0.13446555
C       2.80028171     -1.29618954     -0.68552829
C       3.20510270     -2.17823421     -1.39229128
C       2.97026395      1.10444905     -0.20908736
C       4.36274644      1.18278409     -0.66378965
N       3.26325164      1.29982093     -1.64960250
H       0.40350629     -0.72614713      0.15463948
H       2.50581282     -0.40403807      1.19248859
H       3.55090039     -2.99078309     -1.99358179
H       2.52461041      1.97627475      0.25594990
H       4.92181187      2.09559942     -0.50588912
H       4.93329721      0.26846323     -0.77184071
H       3.09602934      0.48289792     -2.23820047
H       3.06582281      2.19717903     -2.07820010
