17

O       0.89477869     -0.19502697      0.43076309
C       2.28419992     -0.23582998      0.50367598
C       2.78606454     -1.37018888     -0.34399758
C       1.98416768     -2.25524206     -0.92440341
C       4.25826394     -1.46451149     -0.44820340
C       4.95297581     -2.17885237     -1.52604950
N       4.90364105     -0.70079452     -1.58889534
H       0.55384171      0.44503003      1.06081805
H       2.73927010      0.70809552      0.15714322
H       2.64075781     -0.39405422      1.53424012
H       2.35933301     -3.09898123     -1.49120427
H       0.91129405     -2.16158760     -0.81726541
H       4.82646941     -1.30997945      0.46519052
H       5.94240029     -2.58007764     -1.34947648
H       4.37699521     -2.66229351     -2.30369605
H       4.27153000     -0.28710500     -2.26703085
H       5.75607136     -0.17609206     -1.42535984
