19

 O      1.28105470     -3.48037915      1.31868742
 C      2.15633736     -3.28279114      0.24781918
 C      3.03435129     -2.10244799      0.62261572
 C      4.13596832     -1.80772220     -0.36977331
 N      5.19313717     -2.84903738     -0.33891772
 C      6.56725488     -2.57565731     -0.80405089
 C      6.30542528     -2.78013285      0.62987961
 H      0.61170676     -4.12860800      1.08378587
 H      2.76520019     -4.18846729      0.06955057
 H      1.62432433     -3.06362284     -0.68831111
 H      2.40581880     -1.21164134      0.69786809
 H      3.45199965     -2.26669612      1.62114125
 H      3.76997826     -1.76428092     -1.39867375
 H      4.63309870     -0.86211118     -0.14731072
 H      4.84989733     -3.78578841     -0.52756822
 H      6.70760978     -1.56949452     -1.17777405
 H      7.01986832     -3.36886347     -1.38477184
 H      6.25636308     -1.92121254      1.28678686
 H      6.56865593     -3.72203493      1.09354512
