17

 O      2.46136433     -0.73057531     -0.68321836
 C      1.99347043      0.20234436     -0.09716489
 C      2.85574263      1.21425004      0.62786046
 C      4.30900590      0.80401439      0.54127017
 N      5.20512355      1.82289376      1.12743691
 C      6.63446370      1.88787529      0.75560677
 C      5.71784445      2.95526146      0.32631896
 H      0.90383932      0.38428507     -0.05454080
 H      2.50433882      1.28483300      1.66399512
 H      2.67548369      2.19581993      0.17261111
 H      4.61471444      0.65901629     -0.49576737
 H      4.49248903     -0.13354567      1.06827427
 H      5.00723697      2.04193375      2.09916496
 H      7.31173513      2.06396509      1.58129812
 H      6.93242472      1.12798529      0.04459121
 H      5.35895005      2.96220048     -0.69501955
 H      5.72972922      3.90914771      0.83757005
