17

O       0.96197999     -0.60052452     -0.73582061
C       1.82658329      0.20702442     -0.85793849
C       2.66197330      0.67181639      0.32778072
N       4.08837549      0.81178326     -0.02881006
C       5.08803977      1.21515569      1.04435220
C       6.08649729      0.19475888      0.48839652
C       4.92124414     -0.43762913     -0.27850592
H       2.05378211      0.68831882     -1.83466592
H       2.56950086     -0.03851146      1.14922840
H       2.29764083      1.65150802      0.65600337
H       4.17864630      1.44370588     -0.82582659
H       4.67309726      0.94524984      2.01445766
H       5.33044652      2.27568317      1.01833903
H       6.83348259      0.64289894     -0.16541544
H       6.58164041     -0.43945458      1.21856345
H       5.03675523     -0.66746721     -1.33583611
H       4.44753364     -1.27136499      0.23842207
