14

O       2.87295001      1.14291022     -0.91515882
C       2.16898281      0.31166976     -0.04965654
C       0.80137386      0.03097278     -0.51878932
N      -0.21662912     -0.29924078     -0.93852560
C       2.94702628     -0.98786674     -0.00259776
C       2.33740185     -2.29572732      0.27260648
N       2.70595632     -1.93775495     -1.11749112
H       2.53558100      2.04539165     -0.87522300
H       2.11978619      0.69788471      0.97806741
H       4.00063835     -0.85086628      0.21368445
H       2.94298563     -3.07789475      0.71133620
H       1.26648615     -2.36486698      0.42438373
H       3.50312939     -2.38922868     -1.55422555
H       1.93797928     -1.72042465     -1.75266257
