15

O       0.69389093     -0.93839334      0.26669742
C       1.85945065     -0.71295323      0.23704527
C       2.74631711     -1.32478104     -0.84301531
N       4.17618004     -1.39457063     -0.42905261
C       5.11573501     -1.88896418     -1.50612891
C       6.46404224     -1.93107265     -0.99588557
C       7.57772685     -1.96189783     -0.55571007
H       2.35436715     -0.03114464      0.96356231
H       2.39800988     -2.32852942     -1.08686521
H       2.68881920     -0.70319858     -1.74112506
H       4.50628598     -0.47437607     -0.12366564
H       4.28185372     -2.00803654      0.38395143
H       4.75871986     -2.87543352     -1.81159080
H       5.01499907     -1.20579120     -2.35296202
H       8.57576446     -1.99543142     -0.17576666
