19

 O     -0.10089808     -0.11983307      2.40649759
 C      1.23347261      0.15634413      2.04608046
 C      1.14149827      0.83725942      0.69894540
 N      0.25831198      0.01714345     -0.18228356
 C     -0.20147362      0.68872124     -1.42587352
 C     -1.03738834     -0.20072268     -2.28194533
 C     -1.43261982     -1.43186648     -1.99761704
 H     -0.14922619     -0.49823024      3.28881267
 H      1.83246988     -0.76163595      1.98218620
 H      1.72749898      0.83630465      2.74716168
 H      2.11329407      0.95272180      0.22007221
 H      0.66434893      1.81304657      0.79553981
 H     -0.54377443     -0.25376789      0.40227412
 H      0.72830696     -0.85559843     -0.43407195
 H      0.69022989      1.02557872     -1.96144751
 H     -0.75565390      1.58079424     -1.12139165
 H     -1.32813469      0.25555300     -3.22343169
 H     -1.19250085     -1.95455899     -1.07603169
 H     -2.04166334     -1.98892066     -2.69793947
