17

O       3.08454811     -0.56308529      1.14342758
C       2.19041258     -0.02291444      0.19773007
C       2.63010117     -0.60421784     -1.12765481
N       4.10408884     -0.40216317     -1.25841841
C       4.77277809     -1.23108724     -2.31534999
C       6.17835833     -0.90724072     -2.38766783
C       7.34262260     -0.63001764     -2.43510242
H       2.86106885     -0.27721069      2.03369888
H       1.15288288     -0.31955084      0.38058956
H       2.23454182      1.07394979      0.17953214
H       2.46166451     -1.68180726     -1.14508621
H       2.12909218     -0.14209997     -1.97771698
H       4.31592260      0.58256084     -1.43350319
H       4.50218053     -0.61646908     -0.33333529
H       4.60972346     -2.27855385     -2.05165532
H       4.26164603     -1.03052836     -3.26022911
H       8.38195956     -0.39115053     -2.48872965
