13

O       1.70443757      2.21085396      0.25646398
C       1.41963324      1.24593489     -0.38838305
C       2.53955176      0.43011618     -1.02401265
O       2.37034188     -0.56298798     -1.67325092
C       3.94503120      0.92879519     -0.75893776
C       4.88154550     -0.01800151     -0.11335127
N       4.91624868      0.17720020     -1.57285107
H       0.39591844      0.87749320     -0.56581672
H       4.11741314      1.99344619     -0.66258572
H       5.74015116      0.37098746      0.41877069
H       4.51684027     -0.99346121      0.18513645
H       5.69804903      0.66730977     -1.99578275
H       4.47820686     -0.55374106     -2.14230364
