15

 O      1.13104850     -0.41460393     -0.00400824
 C      2.47423649     -0.06689285      0.00342961
 C      3.10237821     -0.42124742      1.34909083
 O      2.41386448     -0.91751174      2.19159134
 C      3.16492978     -0.80398705     -1.13102234
 C      2.83218984     -2.20923077     -1.41365365
 N      2.23320868     -1.13588423     -2.23637054
 H      0.91295754     -0.72646936      0.89380186
 H      2.60389430      1.01461632     -0.15424382
 H      4.17020966     -0.19108377      1.50478204
 H      4.12414106     -0.42808841     -1.46825690
 H      3.54661734     -2.82966401     -1.93814370
 H      2.10927924     -2.71458687     -0.78580011
 H      1.25829285     -0.91995405     -2.01957649
 H      2.52342759     -1.01987139     -3.20096987
