15

O       1.84117154      1.85783565     -0.46959461
C       2.33867850      2.90750735     -0.24311366
O       3.53079380      3.05056523      0.41105115
C       4.12925531      1.82933234      0.81533104
C       5.48823501      2.16449333      1.35149103
C       6.30846029      3.24660794      0.78984244
N       5.59050319      3.46602863      2.06964373
H       1.95060206      3.89847237     -0.50692346
H       4.23189650      1.13923601     -0.02667029
H       3.52035063      1.33721752      1.57847753
H       6.00304605      1.35879404      1.86287790
H       5.91373529      3.83735859     -0.02625486
H       7.38518419      3.20479229      0.88788592
H       4.76229524      4.05497628      2.02232917
H       6.12078669      3.52511671      2.93189195
