15

 O      2.27353816      1.93700501     -0.24799377
 C      2.77104512      2.98667671     -0.02151282
 O      3.96316042      3.12973459      0.63265199
 C      4.56162193      1.90850170      1.03693188
 C      5.92060163      2.24366269      1.57309187
 C      6.74082691      3.32577730      1.01144328
 N      6.02286981      3.54519799      2.29124457
 H      2.38296868      3.97764173     -0.28532262
 H      4.66426312      1.21840537      0.19493055
 H      3.95271725      1.41638688      1.80007837
 H      6.43541267      1.43796340      2.08447874
 H      6.34610191      3.91652795      0.19534598
 H      7.81755081      3.28396165      1.10948676
 H      5.19466186      4.13414564      2.24393001
 H      6.55315331      3.60428607      3.15349279
