16

O       0.48686375      0.16404011      0.37901983
N       1.82395148      0.19161404      0.57396367
C       2.45312095      0.68711953     -0.41004164
C       3.92792499      0.76979778     -0.31153527
C       4.77257213      0.19131155     -1.46555356
N       5.67527601      1.41018808     -1.40410559
C       4.60619789      2.12542384     -0.59799150
H       0.13306363     -0.22825673      1.18574355
H       1.93448319      1.04312462     -1.30316710
H       4.24042712      0.36435797      0.65226715
H       5.30587683     -0.74462898     -1.31626220
H       4.25815876      0.18890603     -2.42579540
H       5.94622389      1.83156198     -2.29154145
H       6.52147628      1.23981041     -0.86199397
H       4.03642842      2.76653688     -1.26957776
H       5.00927583      2.70337860      0.23037012
