16

O       0.31943674      0.36358511      0.41133596
N       1.61829590      0.42512385      0.79906414
C       2.38939582      0.80376364     -0.13284466
C       3.84696247      0.92320154      0.18897856
C       4.19968780      2.35873058      0.46896946
C       4.02989412      2.93077050      1.80994200
N       5.39890894      2.60249478      1.33338036
H      -0.14554624      0.01517691      1.18024536
H       2.01744142      1.03887070     -1.13013973
H       4.45512558      0.55000258     -0.63958167
H       4.05055020      0.31121045      1.07304221
H       4.16805169      3.04998719     -0.36685211
H       3.67734388      2.28791715      2.60732023
H       3.85149718      3.99103314      1.93316147
H       6.02734371      3.36514345      1.10551836
H       5.86031253      1.79330157      1.73587492
