15

C       0.60393474      1.48276919     -1.12187065
C      -0.33662110      0.57378933     -0.40188519
N      -0.28377916     -0.90087121     -0.80968498
C      -0.44414647     -1.53476003      0.54620618
S       0.06534810      0.04431938      1.31275646
O       1.48135014      0.03825154      1.46540909
O      -0.84191374      0.52417454      2.28916223
H       0.35258378      1.54962221     -2.18328327
H       1.64097387      1.16335899     -1.00089330
H       0.50942716      2.48655700     -0.70213706
H      -1.38317539      0.88382302     -0.43236697
H       0.62934601     -1.12005419     -1.21468914
H      -1.00417662     -1.16792658     -1.48234865
H       0.21388551     -2.38495827      0.70978515
H      -1.49047110     -1.76556062      0.73947583
