15

 C      0.54989067      1.44174680     -1.74287967
 C     -0.39066517      0.53276694     -1.02289421
 N     -0.33782323     -0.94189360     -1.43069400
 C     -0.49819054     -1.57578242     -0.07480284
 S      0.01130403      0.00329699      0.69174744
 O      1.42730607     -0.00277085      0.84440007
 O     -0.89595781      0.48315215      1.66815321
 H      0.29853971      1.50859982     -2.80429229
 H      1.58692980      1.12233660     -1.62190232
 H      0.45538309      2.44553461     -1.32314608
 H     -1.43721946      0.84280063     -1.05337599
 H      0.57530194     -1.16107658     -1.83569816
 H     -1.05822069     -1.20894897     -2.10335767
 H      0.15984144     -2.42598066      0.08877613
 H     -1.54451517     -1.80658301      0.11846681
