14
6953.log
C      0.526302    1.433871   -1.748568
C     -0.391556    0.481800   -1.044617
N     -0.312044   -0.930424   -1.433539
C     -0.516314   -1.550162   -0.125403
S     -0.000154    0.000090    0.688527
O      1.426434    0.000372    0.883270
O     -0.866804    0.504969    1.713360
H      0.312964    1.432505   -2.820427
H      1.569442    1.151982   -1.590146
H      0.384666    2.449938   -1.377507
H     -1.433557    0.815378   -1.048083
H      0.630354   -1.126962   -1.753193
H      0.096711   -2.424327    0.085907
H     -1.569857   -1.740883    0.086288
